xflr5 v6.47

Plane Name
T1-10.0 m/s-Panel-Inviscid
QInf  =   10.000000 m/s
Alpha =    0.000000
Beta  =    0.000°
Phi   =    0.000°
Ctrl  =    0.000
CL    =    0.430299
Cy    =   -0.000000
Cd    =    0.006490     ICd   =    0.006490     PCd   =    0.000000
Cl   = -4.24332e-10
Cm   =   -0.621253
ICn   =   -0.000000     PCn   =   -0.000000 
XCP   =   10.057100     YCP   =    0.000000     ZCP   =    0.897841  
XNP   =    0.000000
Bending = 53612.549843

Main Wing
  y-span        Chord      Ai         Cl        PCd          ICd        CmGeom    CmAirf@chord/4    XTrtop    XTrBot      XCP       BM
  -28.5212     2.9417    -5.583    0.169809    0.000000    0.016604   -1.120527   -0.048112     0.0000    0.0000    0.4866    0.0000
  -28.3264     2.9883    -3.778    0.272379    0.000000    0.017991   -1.572304   -0.074929     0.0000    0.0000    0.5088    0.6012
  -27.9381     3.0813    -2.572    0.352324    0.000000    0.015829   -1.854487   -0.085173     0.0000    0.0000    0.4883    7.6439
  -27.3589     3.2200    -1.813    0.407153    0.000000    0.012891   -2.010878   -0.094039     0.0000    0.0000    0.4782   37.4354
  -26.5928     3.4034    -1.357    0.442792    0.000000    0.010489   -2.032078   -0.100175     0.0000    0.0000    0.4728   119.6762
  -25.6451     3.6303    -1.071    0.464117    0.000000    0.008679   -1.950304   -0.104005     0.0000    0.0000    0.4702   299.0231
  -24.5222     3.8991    -0.892    0.475160    0.000000    0.007395   -1.804232   -0.106218     0.0000    0.0000    0.4694   635.7313
  -23.2318     4.2080    -0.784    0.479096    0.000000    0.006557   -1.625725   -0.107440     0.0000    0.0000    0.4701   1205.6058
  -21.7827     4.5550    -0.727    0.478170    0.000000    0.006065   -1.436761   -0.108087     0.0000    0.0000    0.4719   2099.3346
  -20.1848     4.9375    -0.704    0.473849    0.000000    0.005820   -1.250902   -0.108400     0.0000    0.0000    0.4747   3421.0856
  -18.4490     5.3531    -0.705    0.467055    0.000000    0.005747   -1.075833   -0.108518     0.0000    0.0000    0.4785   5286.1806
  -16.5872     5.7988    -0.723    0.458333    0.000000    0.005785   -0.915410   -0.108520     0.0000    0.0000    0.4831   7817.7073
  -14.6121     6.2717    -0.753    0.447972    0.000000    0.005888   -0.771133   -0.108444     0.0000    0.0000    0.4887   11141.9948
  -12.5371     6.7685    -0.791    0.436088    0.000000    0.006021   -0.643116   -0.108327     0.0000    0.0000    0.4954   15382.9709
  -10.3766     7.2857    -0.834    0.422654    0.000000    0.006153   -0.530739   -0.108198     0.0000    0.0000    0.5034   20655.5284
   -8.1451     7.8200    -0.877    0.407494    0.000000    0.006240   -0.433021   -0.108106     0.0000    0.0000    0.5133   27058.0916
   -5.8580     8.3675    -0.913    0.390274    0.000000    0.006222   -0.348944   -0.108160     0.0000    0.0000    0.5259   34664.6016
   -3.5309     8.9247    -0.919    0.370366    0.000000    0.005947   -0.277705   -0.108600     0.0000    0.0000    0.5430   43516.1955
   -1.1796     9.4876    -0.776    0.346154    0.000000    0.004711   -0.219400   -0.110428     0.0000    0.0000    0.5696   53612.5497
    1.1796     9.4876    -0.776    0.346154    0.000000    0.004711   -0.219400   -0.110428     0.0000    0.0000    0.5696   53612.5498
    3.5309     8.9247    -0.919    0.370366    0.000000    0.005947   -0.277705   -0.108600     0.0000    0.0000    0.5430   43516.1956
    5.8580     8.3675    -0.913    0.390274    0.000000    0.006222   -0.348944   -0.108160     0.0000    0.0000    0.5259   34664.6017
    8.1451     7.8200    -0.877    0.407494    0.000000    0.006240   -0.433021   -0.108106     0.0000    0.0000    0.5133   27058.0916
   10.3766     7.2857    -0.834    0.422654    0.000000    0.006153   -0.530739   -0.108198     0.0000    0.0000    0.5034   20655.5284
   12.5371     6.7685    -0.791    0.436088    0.000000    0.006021   -0.643116   -0.108327     0.0000    0.0000    0.4954   15382.9710
   14.6121     6.2717    -0.753    0.447972    0.000000    0.005888   -0.771133   -0.108444     0.0000    0.0000    0.4887   11141.9948
   16.5872     5.7988    -0.723    0.458333    0.000000    0.005785   -0.915410   -0.108520     0.0000    0.0000    0.4831   7817.7073
   18.4490     5.3531    -0.705    0.467055    0.000000    0.005747   -1.075833   -0.108518     0.0000    0.0000    0.4785   5286.1806
   20.1848     4.9375    -0.704    0.473849    0.000000    0.005820   -1.250902   -0.108400     0.0000    0.0000    0.4747   3421.0856
   21.7827     4.5550    -0.727    0.478170    0.000000    0.006065   -1.436761   -0.108087     0.0000    0.0000    0.4719   2099.3346
   23.2318     4.2080    -0.784    0.479096    0.000000    0.006557   -1.625725   -0.107440     0.0000    0.0000    0.4701   1205.6058
   24.5222     3.8991    -0.892    0.475160    0.000000    0.007395   -1.804232   -0.106218     0.0000    0.0000    0.4694   635.7313
   25.6451     3.6303    -1.071    0.464117    0.000000    0.008679   -1.950304   -0.104005     0.0000    0.0000    0.4702   299.0231
   26.5928     3.4034    -1.357    0.442792    0.000000    0.010489   -2.032078   -0.100175     0.0000    0.0000    0.4728   119.6762
   27.3589     3.2200    -1.813    0.407153    0.000000    0.012891   -2.010878   -0.094039     0.0000    0.0000    0.4782   37.4354
   27.9381     3.0813    -2.572    0.352324    0.000000    0.015829   -1.854487   -0.085173     0.0000    0.0000    0.4883    7.6439
   28.3264     2.9883    -3.778    0.272379    0.000000    0.017991   -1.572304   -0.074929     0.0000    0.0000    0.5088    0.6012
   28.5212     2.9417    -5.583    0.169809    0.000000    0.016604   -1.120527   -0.048112     0.0000    0.0000    0.4866    0.0000


Main Wing Cp Coefficients
 Panel     CtrlPt.x        CtrlPt.y        CtrlPt.z       Nx      Ny       Nz        Area       Cp
Main WingCp Coefficients
Strip 1
  13       1.779e+01      -2.850e+01       9.811e-01          -0.052          -0.056          -0.997       4.178e-03         -0.1056
  14       1.770e+01      -2.850e+01       9.954e-01          -0.205          -0.099          -0.974       1.256e-02         -0.0034
  15       1.754e+01      -2.850e+01       1.014e+00          -0.052          -0.055          -0.997       1.969e-02          0.0767
  16       1.731e+01      -2.850e+01       1.004e+00           0.111          -0.004          -0.994       2.608e-02          0.1046
  17       1.702e+01      -2.851e+01       9.576e-01           0.198           0.026          -0.980       3.133e-02          0.0608
  18       1.669e+01      -2.851e+01       8.951e-01           0.175           0.017          -0.984       3.419e-02         -0.0530
  19       1.634e+01      -2.851e+01       8.513e-01           0.074          -0.022          -0.997       3.473e-02         -0.1358
  20       1.599e+01      -2.851e+01       8.384e-01          -0.002          -0.054          -0.999       3.363e-02         -0.1465
  21       1.566e+01      -2.851e+01       8.477e-01          -0.057          -0.079          -0.995       3.074e-02         -0.1438
  22       1.537e+01      -2.851e+01       8.713e-01          -0.110          -0.103          -0.989       2.613e-02         -0.1497
  23       1.514e+01      -2.851e+01       9.055e-01          -0.190          -0.141          -0.972       2.015e-02         -0.1684
  24       1.497e+01      -2.851e+01       9.516e-01          -0.381          -0.235          -0.894       1.360e-02         -0.1016
  25       1.489e+01      -2.850e+01       1.016e+00          -0.794          -0.429          -0.431       9.346e-03          0.4902
  26       1.489e+01      -2.850e+01       1.092e+00          -0.791          -0.396           0.466       9.243e-03          0.0988
  27       1.497e+01      -2.850e+01       1.154e+00          -0.364          -0.162           0.917       1.347e-02         -0.7025
  28       1.514e+01      -2.850e+01       1.196e+00          -0.165          -0.059           0.985       2.001e-02         -0.4797
  29       1.537e+01      -2.850e+01       1.225e+00          -0.086          -0.019           0.996       2.601e-02         -0.3349
  30       1.566e+01      -2.849e+01       1.241e+00          -0.032           0.006           0.999       3.064e-02         -0.2766
  31       1.599e+01      -2.849e+01       1.244e+00           0.010           0.025           1.000       3.357e-02         -0.2433
  32       1.634e+01      -2.850e+01       1.234e+00           0.047           0.040           0.998       3.461e-02         -0.2234
  33       1.669e+01      -2.850e+01       1.210e+00           0.090           0.057           0.994       3.371e-02         -0.2108
  34       1.702e+01      -2.850e+01       1.172e+00           0.143           0.075           0.987       3.096e-02         -0.1973
  35       1.731e+01      -2.850e+01       1.122e+00           0.200           0.094           0.975       2.647e-02         -0.1961
  36       1.754e+01      -2.850e+01       1.069e+00           0.252           0.110           0.962       2.037e-02         -0.2174
  37       1.770e+01      -2.850e+01       1.024e+00           0.291           0.121           0.949       1.288e-02         -0.2609
  38       1.779e+01      -2.850e+01       9.921e-01           0.490           0.174           0.854       4.851e-03         -0.0912
Strip 2
  39       1.773e+01      -2.831e+01       9.729e-01          -0.052          -0.056          -0.997       1.270e-02         -0.0022
  40       1.765e+01      -2.831e+01       9.874e-01          -0.205          -0.099          -0.974       3.820e-02          0.1524
  41       1.748e+01      -2.831e+01       1.006e+00          -0.052          -0.055          -0.997       5.986e-02          0.2552
  42       1.724e+01      -2.831e+01       9.965e-01           0.111          -0.004          -0.994       7.929e-02          0.2456
  43       1.695e+01      -2.831e+01       9.490e-01           0.198           0.026          -0.980       9.526e-02          0.1388
  44       1.662e+01      -2.831e+01       8.856e-01           0.175           0.017          -0.984       1.040e-01         -0.0422
  45       1.626e+01      -2.831e+01       8.411e-01           0.074          -0.022          -0.997       1.056e-01         -0.1671
  46       1.591e+01      -2.831e+01       8.279e-01          -0.002          -0.054          -0.999       1.022e-01         -0.1854
  47       1.557e+01      -2.831e+01       8.374e-01          -0.057          -0.079          -0.995       9.347e-02         -0.1805
  48       1.528e+01      -2.831e+01       8.614e-01          -0.110          -0.103          -0.989       7.946e-02         -0.1832
  49       1.504e+01      -2.831e+01       8.962e-01          -0.189          -0.141          -0.972       6.126e-02         -0.1894
  50       1.487e+01      -2.831e+01       9.430e-01          -0.381          -0.235          -0.894       4.137e-02         -0.0692
  51       1.479e+01      -2.831e+01       1.009e+00          -0.794          -0.429          -0.431       2.842e-02          0.5896
  52       1.479e+01      -2.831e+01       1.085e+00          -0.791          -0.396           0.466       2.810e-02          0.0759
  53       1.487e+01      -2.830e+01       1.149e+00          -0.365          -0.162           0.917       4.094e-02         -0.8500
  54       1.504e+01      -2.830e+01       1.192e+00          -0.165          -0.059           0.985       6.083e-02         -0.6096
  55       1.528e+01      -2.830e+01       1.220e+00          -0.086          -0.019           0.996       7.909e-02         -0.4344
  56       1.557e+01      -2.830e+01       1.237e+00          -0.032           0.006           0.999       9.316e-02         -0.3526
  57       1.591e+01      -2.830e+01       1.240e+00           0.010           0.025           1.000       1.021e-01         -0.3068
  58       1.626e+01      -2.830e+01       1.230e+00           0.047           0.040           0.998       1.052e-01         -0.2843
  59       1.662e+01      -2.830e+01       1.206e+00           0.090           0.057           0.994       1.025e-01         -0.2757
  60       1.695e+01      -2.830e+01       1.167e+00           0.143           0.075           0.987       9.414e-02         -0.2629
  61       1.724e+01      -2.830e+01       1.116e+00           0.200           0.094           0.975       8.050e-02         -0.2401
  62       1.748e+01      -2.831e+01       1.062e+00           0.252           0.110           0.962       6.193e-02         -0.2016
  63       1.765e+01      -2.831e+01       1.016e+00           0.291           0.121           0.949       3.916e-02         -0.1826
  64       1.773e+01      -2.831e+01       9.842e-01           0.490           0.174           0.854       1.475e-02          0.0094
Strip 3
  65       1.762e+01      -2.792e+01       9.567e-01          -0.052          -0.056          -0.997       2.173e-02          0.0886
  66       1.754e+01      -2.792e+01       9.716e-01          -0.205          -0.099          -0.974       6.536e-02          0.2603
  67       1.736e+01      -2.792e+01       9.910e-01          -0.052          -0.055          -0.997       1.024e-01          0.3561
  68       1.712e+01      -2.792e+01       9.809e-01           0.111          -0.004          -0.994       1.356e-01          0.3152
  69       1.682e+01      -2.792e+01       9.320e-01           0.199           0.026          -0.980       1.629e-01          0.1746
  70       1.647e+01      -2.792e+01       8.666e-01           0.175           0.017          -0.984       1.778e-01         -0.0371
  71       1.611e+01      -2.793e+01       8.207e-01           0.074          -0.022          -0.997       1.806e-01         -0.1851
  72       1.574e+01      -2.793e+01       8.072e-01          -0.002          -0.054          -0.999       1.749e-01         -0.2095
  73       1.539e+01      -2.793e+01       8.169e-01          -0.057          -0.079          -0.995       1.599e-01         -0.1963
  74       1.509e+01      -2.793e+01       8.417e-01          -0.110          -0.103          -0.989       1.359e-01         -0.1761
  75       1.485e+01      -2.792e+01       8.775e-01          -0.189          -0.141          -0.972       1.048e-01         -0.1437
  76       1.468e+01      -2.792e+01       9.258e-01          -0.381          -0.235          -0.894       7.080e-02          0.0243
  77       1.459e+01      -2.792e+01       9.934e-01          -0.793          -0.429          -0.432       4.864e-02          0.6927
  78       1.459e+01      -2.792e+01       1.072e+00          -0.792          -0.396           0.465       4.806e-02          0.0757
  79       1.468e+01      -2.792e+01       1.138e+00          -0.365          -0.162           0.917       7.002e-02         -0.9261
  80       1.485e+01      -2.791e+01       1.182e+00          -0.165          -0.059           0.985       1.040e-01         -0.6907
  81       1.509e+01      -2.791e+01       1.212e+00          -0.086          -0.019           0.996       1.353e-01         -0.5223
  82       1.539e+01      -2.791e+01       1.229e+00          -0.032           0.006           0.999       1.594e-01         -0.4378
  83       1.574e+01      -2.791e+01       1.232e+00           0.010           0.025           1.000       1.746e-01         -0.3827
  84       1.611e+01      -2.791e+01       1.222e+00           0.047           0.040           0.998       1.800e-01         -0.3514
  85       1.647e+01      -2.791e+01       1.197e+00           0.090           0.057           0.994       1.754e-01         -0.3320
  86       1.682e+01      -2.791e+01       1.157e+00           0.143           0.075           0.987       1.611e-01         -0.2972
  87       1.712e+01      -2.792e+01       1.105e+00           0.200           0.094           0.975       1.377e-01         -0.2358
  88       1.736e+01      -2.792e+01       1.049e+00           0.252           0.110           0.962       1.060e-01         -0.1482
  89       1.754e+01      -2.792e+01       1.001e+00           0.291           0.121           0.949       6.700e-02         -0.0845
  90       1.762e+01      -2.792e+01       9.683e-01           0.490           0.174           0.854       2.524e-02          0.1128
Strip 4
  91       1.746e+01      -2.734e+01       9.324e-01          -0.052          -0.056          -0.997       3.158e-02          0.1096
  92       1.737e+01      -2.734e+01       9.481e-01          -0.205          -0.099          -0.974       9.498e-02          0.2862
  93       1.719e+01      -2.734e+01       9.683e-01          -0.052          -0.055          -0.997       1.488e-01          0.3833
  94       1.693e+01      -2.734e+01       9.578e-01           0.111          -0.004          -0.994       1.971e-01          0.3378
  95       1.662e+01      -2.734e+01       9.067e-01           0.199           0.026          -0.980       2.367e-01          0.1888
  96       1.625e+01      -2.735e+01       8.383e-01           0.175           0.017          -0.984       2.583e-01         -0.0329
  97       1.587e+01      -2.735e+01       7.903e-01           0.074          -0.022          -0.997       2.624e-01         -0.1879
  98       1.549e+01      -2.735e+01       7.762e-01          -0.002          -0.054          -0.999       2.542e-01         -0.2107
  99       1.513e+01      -2.735e+01       7.863e-01          -0.057          -0.079          -0.995       2.323e-01         -0.1874
 100       1.481e+01      -2.735e+01       8.123e-01          -0.110          -0.103          -0.989       1.976e-01         -0.1531
 101       1.456e+01      -2.735e+01       8.497e-01          -0.189          -0.141          -0.972       1.523e-01         -0.1075
 102       1.438e+01      -2.734e+01       9.002e-01          -0.381          -0.235          -0.894       1.029e-01          0.0752
 103       1.429e+01      -2.734e+01       9.708e-01          -0.793          -0.429          -0.432       7.070e-02          0.7244
 104       1.429e+01      -2.734e+01       1.053e+00          -0.792          -0.396           0.464       6.980e-02          0.0428
 105       1.438e+01      -2.734e+01       1.122e+00          -0.365          -0.162           0.917       1.017e-01         -0.9848
 106       1.456e+01      -2.734e+01       1.168e+00          -0.165          -0.059           0.985       1.512e-01         -0.7379
 107       1.481e+01      -2.733e+01       1.199e+00          -0.086          -0.019           0.996       1.966e-01         -0.5710
 108       1.513e+01      -2.733e+01       1.217e+00          -0.032           0.006           0.999       2.316e-01         -0.4930
 109       1.549e+01      -2.733e+01       1.221e+00           0.010           0.025           1.000       2.537e-01         -0.4403
 110       1.587e+01      -2.733e+01       1.210e+00           0.047           0.040           0.998       2.616e-01         -0.4064
 111       1.625e+01      -2.733e+01       1.183e+00           0.090           0.057           0.994       2.548e-01         -0.3801
 112       1.662e+01      -2.734e+01       1.142e+00           0.143           0.075           0.987       2.340e-01         -0.3340
 113       1.693e+01      -2.734e+01       1.087e+00           0.200           0.094           0.975       2.001e-01         -0.2572
 114       1.719e+01      -2.734e+01       1.029e+00           0.252           0.110           0.962       1.540e-01         -0.1529
 115       1.737e+01      -2.734e+01       9.789e-01           0.291           0.121           0.949       9.736e-02         -0.0736
 116       1.746e+01      -2.734e+01       9.445e-01           0.490           0.174           0.854       3.668e-02          0.1260
Strip 5
 117       1.724e+01      -2.658e+01       9.004e-01          -0.052          -0.056          -0.997       4.252e-02          0.1142
 118       1.714e+01      -2.658e+01       9.169e-01          -0.205          -0.099          -0.974       1.279e-01          0.2932
 119       1.696e+01      -2.658e+01       9.382e-01          -0.052          -0.055          -0.997       2.004e-01          0.3919
 120       1.668e+01      -2.658e+01       9.272e-01           0.111          -0.004          -0.994       2.653e-01          0.3462
 121       1.635e+01      -2.658e+01       8.731e-01           0.199           0.026          -0.980       3.187e-01          0.1957
 122       1.597e+01      -2.658e+01       8.009e-01           0.175           0.017          -0.984       3.478e-01         -0.0274
 123       1.556e+01      -2.658e+01       7.501e-01           0.074          -0.022          -0.997       3.533e-01         -0.1821
 124       1.516e+01      -2.658e+01       7.352e-01          -0.002          -0.054          -0.999       3.422e-01         -0.2019
 125       1.478e+01      -2.658e+01       7.459e-01          -0.057          -0.079          -0.995       3.129e-01         -0.1741
 126       1.444e+01      -2.658e+01       7.733e-01          -0.110          -0.103          -0.989       2.660e-01         -0.1355
 127       1.417e+01      -2.658e+01       8.129e-01          -0.189          -0.141          -0.972       2.052e-01         -0.0853
 128       1.399e+01      -2.658e+01       8.662e-01          -0.381          -0.235          -0.894       1.386e-01          0.1047
 129       1.389e+01      -2.658e+01       9.409e-01          -0.793          -0.429          -0.433       9.524e-02          0.7380
 130       1.389e+01      -2.657e+01       1.028e+00          -0.792          -0.397           0.464       9.394e-02          0.0138
 131       1.399e+01      -2.657e+01       1.101e+00          -0.365          -0.162           0.917       1.369e-01         -1.0277
 132       1.417e+01      -2.657e+01       1.149e+00          -0.165          -0.059           0.985       2.035e-01         -0.7690
 133       1.444e+01      -2.657e+01       1.182e+00          -0.086          -0.019           0.996       2.647e-01         -0.5997
 134       1.478e+01      -2.657e+01       1.201e+00          -0.032           0.006           0.999       3.118e-01         -0.5240
 135       1.516e+01      -2.657e+01       1.205e+00           0.010           0.025           1.000       3.416e-01         -0.4742
 136       1.556e+01      -2.657e+01       1.193e+00           0.047           0.040           0.998       3.523e-01         -0.4412
 137       1.597e+01      -2.657e+01       1.166e+00           0.090           0.057           0.994       3.432e-01         -0.4127
 138       1.635e+01      -2.657e+01       1.122e+00           0.143           0.075           0.987       3.152e-01         -0.3609
 139       1.668e+01      -2.657e+01       1.064e+00           0.200           0.094           0.975       2.695e-01         -0.2760
 140       1.696e+01      -2.657e+01       1.002e+00           0.252           0.110           0.962       2.074e-01         -0.1635
 141       1.714e+01      -2.658e+01       9.494e-01           0.291           0.121           0.949       1.311e-01         -0.0771
 142       1.724e+01      -2.658e+01       9.132e-01           0.490           0.174           0.854       4.941e-02          0.1239
Strip 6
 143       1.697e+01      -2.563e+01       8.607e-01          -0.052          -0.056          -0.997       5.480e-02          0.1147
 144       1.687e+01      -2.563e+01       8.783e-01          -0.205          -0.099          -0.974       1.649e-01          0.2955
 145       1.667e+01      -2.563e+01       9.011e-01          -0.052          -0.055          -0.997       2.582e-01          0.3956
 146       1.638e+01      -2.563e+01       8.893e-01           0.111          -0.004          -0.994       3.419e-01          0.3504
 147       1.602e+01      -2.563e+01       8.316e-01           0.199           0.026          -0.980       4.106e-01          0.2003
 148       1.562e+01      -2.563e+01       7.545e-01           0.175           0.017          -0.984       4.481e-01         -0.0222
 149       1.518e+01      -2.563e+01       7.004e-01           0.074          -0.022          -0.997       4.553e-01         -0.1755
 150       1.475e+01      -2.563e+01       6.845e-01          -0.002          -0.054          -0.999       4.410e-01         -0.1938
 151       1.435e+01      -2.563e+01       6.960e-01          -0.057          -0.079          -0.995       4.033e-01         -0.1645
 152       1.399e+01      -2.563e+01       7.252e-01          -0.110          -0.103          -0.989       3.429e-01         -0.1246
 153       1.370e+01      -2.563e+01       7.674e-01          -0.189          -0.141          -0.972       2.645e-01         -0.0726
 154       1.350e+01      -2.563e+01       8.243e-01          -0.380          -0.235          -0.895       1.787e-01          0.1209
 155       1.340e+01      -2.563e+01       9.039e-01          -0.792          -0.429          -0.434       1.228e-01          0.7443
 156       1.340e+01      -2.563e+01       9.971e-01          -0.793          -0.397           0.463       1.210e-01         -0.0044
 157       1.350e+01      -2.562e+01       1.074e+00          -0.365          -0.162           0.917       1.763e-01         -1.0543
 158       1.370e+01      -2.562e+01       1.126e+00          -0.165          -0.059           0.984       2.622e-01         -0.7877
 159       1.399e+01      -2.562e+01       1.161e+00          -0.086          -0.019           0.996       3.410e-01         -0.6162
 160       1.435e+01      -2.562e+01       1.182e+00          -0.032           0.006           0.999       4.018e-01         -0.5410
 161       1.475e+01      -2.562e+01       1.186e+00           0.010           0.025           1.000       4.403e-01         -0.4925
 162       1.518e+01      -2.562e+01       1.173e+00           0.047           0.040           0.998       4.540e-01         -0.4602
 163       1.562e+01      -2.562e+01       1.144e+00           0.090           0.057           0.994       4.423e-01         -0.4312
 164       1.602e+01      -2.562e+01       1.097e+00           0.143           0.075           0.987       4.063e-01         -0.3769
 165       1.638e+01      -2.563e+01       1.035e+00           0.200           0.094           0.975       3.474e-01         -0.2880
 166       1.667e+01      -2.563e+01       9.692e-01           0.252           0.110           0.962       2.673e-01         -0.1713
 167       1.687e+01      -2.563e+01       9.130e-01           0.291           0.121           0.949       1.690e-01         -0.0817
 168       1.697e+01      -2.563e+01       8.743e-01           0.490           0.174           0.854       6.370e-02          0.1198
Strip 7
 169       1.665e+01      -2.451e+01       8.137e-01          -0.052          -0.056          -0.997       6.861e-02          0.1149
 170       1.654e+01      -2.451e+01       8.326e-01          -0.205          -0.099          -0.974       2.064e-01          0.2966
 171       1.633e+01      -2.451e+01       8.571e-01          -0.052          -0.055          -0.997       3.233e-01          0.3977
 172       1.602e+01      -2.451e+01       8.444e-01           0.111          -0.004          -0.994       4.279e-01          0.3531
 173       1.563e+01      -2.451e+01       7.825e-01           0.199           0.026          -0.980       5.139e-01          0.2034
 174       1.520e+01      -2.451e+01       6.996e-01           0.175           0.017          -0.984       5.609e-01         -0.0186
 175       1.473e+01      -2.451e+01       6.415e-01           0.074          -0.022          -0.997       5.699e-01         -0.1712
 176       1.427e+01      -2.451e+01       6.244e-01          -0.002          -0.054          -0.999       5.521e-01         -0.1888
 177       1.383e+01      -2.451e+01       6.367e-01          -0.057          -0.079          -0.995       5.048e-01         -0.1592
 178       1.345e+01      -2.451e+01       6.681e-01          -0.110          -0.103          -0.989       4.293e-01         -0.1193
 179       1.314e+01      -2.451e+01       7.135e-01          -0.189          -0.141          -0.972       3.311e-01         -0.0670
 180       1.292e+01      -2.451e+01       7.746e-01          -0.380          -0.235          -0.895       2.239e-01          0.1276
 181       1.281e+01      -2.451e+01       8.601e-01          -0.792          -0.429          -0.435       1.538e-01          0.7467
 182       1.281e+01      -2.450e+01       9.602e-01          -0.793          -0.397           0.462       1.514e-01         -0.0114
 183       1.292e+01      -2.450e+01       1.043e+00          -0.365          -0.162           0.917       2.206e-01         -1.0663
 184       1.314e+01      -2.450e+01       1.099e+00          -0.165          -0.059           0.984       3.281e-01         -0.7966
 185       1.345e+01      -2.450e+01       1.137e+00          -0.086          -0.019           0.996       4.269e-01         -0.6244
 186       1.383e+01      -2.450e+01       1.158e+00          -0.032           0.006           0.999       5.030e-01         -0.5494
 187       1.427e+01      -2.450e+01       1.163e+00           0.010           0.025           1.000       5.512e-01         -0.5016
 188       1.473e+01      -2.450e+01       1.149e+00           0.047           0.040           0.998       5.684e-01         -0.4699
 189       1.520e+01      -2.450e+01       1.118e+00           0.090           0.057           0.994       5.537e-01         -0.4406
 190       1.563e+01      -2.450e+01       1.067e+00           0.143           0.075           0.987       5.086e-01         -0.3851
 191       1.602e+01      -2.450e+01       1.001e+00           0.200           0.094           0.975       4.350e-01         -0.2945
 192       1.633e+01      -2.450e+01       9.302e-01           0.252           0.110           0.962       3.347e-01         -0.1759
 193       1.654e+01      -2.451e+01       8.699e-01           0.291           0.121           0.949       2.116e-01         -0.0845
 194       1.665e+01      -2.451e+01       8.283e-01           0.489           0.174           0.855       7.977e-02          0.1173
Strip 8
 195       1.629e+01      -2.322e+01       7.596e-01          -0.052          -0.056          -0.997       8.405e-02          0.1149
 196       1.617e+01      -2.322e+01       7.801e-01          -0.205          -0.099          -0.974       2.529e-01          0.2973
 197       1.593e+01      -2.322e+01       8.065e-01          -0.052          -0.055          -0.997       3.961e-01          0.3989
 198       1.560e+01      -2.322e+01       7.928e-01           0.111          -0.004          -0.994       5.242e-01          0.3547
 199       1.519e+01      -2.322e+01       7.260e-01           0.199           0.026          -0.980       6.295e-01          0.2051
 200       1.471e+01      -2.322e+01       6.366e-01           0.175           0.017          -0.984       6.870e-01         -0.0167
 201       1.422e+01      -2.322e+01       5.739e-01           0.074          -0.022          -0.997       6.982e-01         -0.1692
 202       1.372e+01      -2.322e+01       5.554e-01          -0.002          -0.054          -0.999       6.764e-01         -0.1869
 203       1.324e+01      -2.322e+01       5.687e-01          -0.057          -0.079          -0.995       6.185e-01         -0.1575
 204       1.283e+01      -2.322e+01       6.026e-01          -0.110          -0.103          -0.989       5.261e-01         -0.1181
 205       1.250e+01      -2.322e+01       6.515e-01          -0.189          -0.141          -0.972       4.058e-01         -0.0664
 206       1.226e+01      -2.322e+01       7.174e-01          -0.380          -0.235          -0.895       2.744e-01          0.1273
 207       1.214e+01      -2.322e+01       8.098e-01          -0.791          -0.428          -0.436       1.885e-01          0.7467
 208       1.214e+01      -2.321e+01       9.178e-01          -0.794          -0.397           0.461       1.854e-01         -0.0088
 209       1.226e+01      -2.321e+01       1.007e+00          -0.366          -0.162           0.917       2.702e-01         -1.0663
 210       1.250e+01      -2.321e+01       1.068e+00          -0.165          -0.059           0.984       4.019e-01         -0.7978
 211       1.283e+01      -2.321e+01       1.108e+00          -0.086          -0.019           0.996       5.229e-01         -0.6265
 212       1.324e+01      -2.321e+01       1.132e+00          -0.032           0.006           0.999       6.161e-01         -0.5523
 213       1.372e+01      -2.321e+01       1.136e+00           0.010           0.025           1.000       6.752e-01         -0.5053
 214       1.422e+01      -2.321e+01       1.122e+00           0.047           0.040           0.998       6.963e-01         -0.4740
 215       1.471e+01      -2.321e+01       1.088e+00           0.090           0.057           0.994       6.784e-01         -0.4447
 216       1.519e+01      -2.321e+01       1.033e+00           0.143           0.075           0.987       6.232e-01         -0.3889
 217       1.560e+01      -2.321e+01       9.619e-01           0.200           0.094           0.975       5.330e-01         -0.2974
 218       1.593e+01      -2.322e+01       8.854e-01           0.251           0.110           0.962       4.101e-01         -0.1781
 219       1.617e+01      -2.322e+01       8.204e-01           0.291           0.121           0.949       2.593e-01         -0.0860
 220       1.629e+01      -2.322e+01       7.755e-01           0.489           0.174           0.855       9.776e-02          0.1158
Strip 9
 221       1.588e+01      -2.177e+01       6.990e-01          -0.052          -0.056          -0.997       1.012e-01          0.1149
 222       1.575e+01      -2.177e+01       7.211e-01          -0.205          -0.099          -0.974       3.046e-01          0.2976
 223       1.549e+01      -2.177e+01       7.497e-01          -0.052          -0.055          -0.997       4.769e-01          0.3996
 224       1.513e+01      -2.177e+01       7.349e-01           0.111          -0.004          -0.994       6.311e-01          0.3555
 225       1.468e+01      -2.177e+01       6.625e-01           0.199           0.026          -0.980       7.578e-01          0.2059
 226       1.417e+01      -2.177e+01       5.658e-01           0.175           0.017          -0.984       8.270e-01         -0.0162
 227       1.363e+01      -2.177e+01       4.978e-01           0.074          -0.022          -0.997       8.405e-01         -0.1691
 228       1.309e+01      -2.177e+01       4.778e-01          -0.002          -0.054          -0.999       8.143e-01         -0.1871
 229       1.258e+01      -2.177e+01       4.922e-01          -0.057          -0.079          -0.995       7.447e-01         -0.1583
 230       1.213e+01      -2.177e+01       5.289e-01          -0.109          -0.103          -0.989       6.334e-01         -0.1198
 231       1.177e+01      -2.177e+01       5.819e-01          -0.189          -0.141          -0.972       4.887e-01         -0.0695
 232       1.152e+01      -2.177e+01       6.533e-01          -0.380          -0.234          -0.895       3.305e-01          0.1218
 233       1.139e+01      -2.177e+01       7.533e-01          -0.791          -0.428          -0.437       2.271e-01          0.7451
 234       1.139e+01      -2.177e+01       8.701e-01          -0.794          -0.398           0.460       2.231e-01          0.0013
 235       1.152e+01      -2.177e+01       9.671e-01          -0.366          -0.162           0.916       3.251e-01         -1.0570
 236       1.177e+01      -2.176e+01       1.032e+00          -0.165          -0.059           0.984       4.838e-01         -0.7934
 237       1.213e+01      -2.176e+01       1.076e+00          -0.086          -0.019           0.996       6.295e-01         -0.6245
 238       1.258e+01      -2.176e+01       1.102e+00          -0.032           0.006           0.999       7.418e-01         -0.5516
 239       1.309e+01      -2.176e+01       1.107e+00           0.010           0.025           1.000       8.130e-01         -0.5055
 240       1.363e+01      -2.176e+01       1.091e+00           0.047           0.040           0.998       8.384e-01         -0.4748
 241       1.417e+01      -2.176e+01       1.054e+00           0.090           0.057           0.994       8.169e-01         -0.4458
 242       1.468e+01      -2.176e+01       9.952e-01           0.143           0.075           0.987       7.504e-01         -0.3900
 243       1.513e+01      -2.177e+01       9.179e-01           0.200           0.094           0.975       6.418e-01         -0.2985
 244       1.549e+01      -2.177e+01       8.351e-01           0.251           0.110           0.962       4.939e-01         -0.1790
 245       1.575e+01      -2.177e+01       7.647e-01           0.291           0.121           0.949       3.123e-01         -0.0867
 246       1.588e+01      -2.177e+01       7.161e-01           0.489           0.174           0.855       1.177e-01          0.1149
Strip 10
 247       1.542e+01      -2.017e+01       6.321e-01          -0.052          -0.056          -0.997       1.200e-01          0.1148
 248       1.528e+01      -2.017e+01       6.561e-01          -0.205          -0.099          -0.974       3.613e-01          0.2978
 249       1.501e+01      -2.017e+01       6.871e-01          -0.052          -0.055          -0.997       5.656e-01          0.3999
 250       1.462e+01      -2.017e+01       6.710e-01           0.111          -0.004          -0.994       7.484e-01          0.3558
 251       1.413e+01      -2.017e+01       5.926e-01           0.199           0.026          -0.980       8.985e-01          0.2060
 252       1.358e+01      -2.018e+01       4.877e-01           0.175           0.017          -0.984       9.806e-01         -0.0167
 253       1.299e+01      -2.018e+01       4.140e-01           0.074          -0.022          -0.997       9.967e-01         -0.1703
 254       1.240e+01      -2.018e+01       3.923e-01          -0.002          -0.054          -0.999       9.658e-01         -0.1889
 255       1.185e+01      -2.018e+01       4.079e-01          -0.057          -0.079          -0.995       8.833e-01         -0.1609
 256       1.137e+01      -2.018e+01       4.477e-01          -0.109          -0.103          -0.989       7.513e-01         -0.1237
 257       1.097e+01      -2.017e+01       5.052e-01          -0.189          -0.141          -0.972       5.797e-01         -0.0757
 258       1.070e+01      -2.017e+01       5.826e-01          -0.380          -0.234          -0.895       3.922e-01          0.1121
 259       1.056e+01      -2.017e+01       6.909e-01          -0.791          -0.428          -0.438       2.695e-01          0.7421
 260       1.056e+01      -2.017e+01       8.176e-01          -0.794          -0.398           0.459       2.644e-01          0.0172
 261       1.070e+01      -2.017e+01       9.228e-01          -0.366          -0.162           0.916       3.854e-01         -1.0408
 262       1.097e+01      -2.017e+01       9.935e-01          -0.166          -0.059           0.984       5.736e-01         -0.7849
 263       1.137e+01      -2.017e+01       1.041e+00          -0.086          -0.019           0.996       7.465e-01         -0.6194
 264       1.185e+01      -2.017e+01       1.069e+00          -0.032           0.006           0.999       8.797e-01         -0.5483
 265       1.240e+01      -2.017e+01       1.074e+00           0.010           0.025           1.000       9.642e-01         -0.5033
 266       1.299e+01      -2.017e+01       1.057e+00           0.047           0.040           0.998       9.944e-01         -0.4735
 267       1.358e+01      -2.017e+01       1.017e+00           0.090           0.057           0.994       9.689e-01         -0.4451
 268       1.413e+01      -2.017e+01       9.532e-01           0.143           0.075           0.987       8.901e-01         -0.3897
 269       1.462e+01      -2.017e+01       8.695e-01           0.200           0.094           0.975       7.613e-01         -0.2984
 270       1.501e+01      -2.017e+01       7.797e-01           0.251           0.110           0.962       5.858e-01         -0.1790
 271       1.528e+01      -2.017e+01       7.033e-01           0.291           0.121           0.949       3.705e-01         -0.0868
 272       1.542e+01      -2.017e+01       6.507e-01           0.489           0.174           0.855       1.397e-01          0.1144
Strip 11
 273       1.493e+01      -1.844e+01       5.594e-01          -0.052          -0.056          -0.997       1.404e-01          0.1146
 274       1.478e+01      -1.844e+01       5.854e-01          -0.205          -0.099          -0.974       4.227e-01          0.2977
 275       1.448e+01      -1.844e+01       6.190e-01          -0.052          -0.055          -0.997       6.618e-01          0.4000
 276       1.406e+01      -1.844e+01       6.016e-01           0.111          -0.004          -0.994       8.755e-01          0.3559
 277       1.353e+01      -1.844e+01       5.166e-01           0.199           0.026          -0.980       1.051e+00          0.2056
 278       1.293e+01      -1.844e+01       4.028e-01           0.175           0.017          -0.984       1.147e+00         -0.0179
 279       1.229e+01      -1.844e+01       3.230e-01           0.074          -0.022          -0.997       1.166e+00         -0.1724
 280       1.166e+01      -1.844e+01       2.995e-01          -0.002          -0.054          -0.999       1.130e+00         -0.1919
 281       1.106e+01      -1.844e+01       3.164e-01          -0.057          -0.079          -0.995       1.034e+00         -0.1649
 282       1.053e+01      -1.844e+01       3.595e-01          -0.109          -0.103          -0.989       8.792e-01         -0.1292
 283       1.011e+01      -1.844e+01       4.218e-01          -0.189          -0.141          -0.972       6.784e-01         -0.0840
 284       9.810e+00      -1.844e+01       5.057e-01          -0.379          -0.234          -0.895       4.590e-01          0.0991
 285       9.657e+00      -1.844e+01       6.232e-01          -0.790          -0.428          -0.439       3.154e-01          0.7379
 286       9.657e+00      -1.844e+01       7.606e-01          -0.795          -0.398           0.458       3.093e-01          0.0374
 287       9.810e+00      -1.843e+01       8.746e-01          -0.366          -0.162           0.916       4.507e-01         -1.0192
 288       1.011e+01      -1.843e+01       9.513e-01          -0.166          -0.059           0.984       6.710e-01         -0.7729
 289       1.053e+01      -1.843e+01       1.003e+00          -0.086          -0.019           0.996       8.733e-01         -0.6119
 290       1.106e+01      -1.843e+01       1.033e+00          -0.032           0.006           0.999       1.029e+00         -0.5431
 291       1.166e+01      -1.843e+01       1.039e+00           0.010           0.025           1.000       1.128e+00         -0.4997
 292       1.229e+01      -1.843e+01       1.021e+00           0.047           0.040           0.998       1.163e+00         -0.4708
 293       1.293e+01      -1.843e+01       9.771e-01           0.090           0.057           0.994       1.134e+00         -0.4432
 294       1.353e+01      -1.843e+01       9.076e-01           0.143           0.075           0.987       1.042e+00         -0.3883
 295       1.406e+01      -1.843e+01       8.168e-01           0.200           0.094           0.975       8.909e-01         -0.2975
 296       1.448e+01      -1.844e+01       7.195e-01           0.251           0.110           0.962       6.856e-01         -0.1786
 297       1.478e+01      -1.844e+01       6.367e-01           0.290           0.121           0.949       4.335e-01         -0.0867
 298       1.493e+01      -1.844e+01       5.796e-01           0.489           0.174           0.855       1.635e-01          0.1141
Strip 12
 299       1.440e+01      -1.658e+01       4.815e-01          -0.052          -0.056          -0.997       1.623e-01          0.1143
 300       1.424e+01      -1.658e+01       5.097e-01          -0.204          -0.099          -0.974       4.885e-01          0.2976
 301       1.392e+01      -1.658e+01       5.461e-01          -0.052          -0.055          -0.997       7.646e-01          0.3999
 302       1.345e+01      -1.658e+01       5.272e-01           0.111          -0.004          -0.994       1.011e+00          0.3557
 303       1.288e+01      -1.658e+01       4.351e-01           0.199           0.026          -0.980       1.214e+00          0.2049
 304       1.224e+01      -1.658e+01       3.118e-01           0.175           0.017          -0.984       1.325e+00         -0.0197
 305       1.155e+01      -1.658e+01       2.253e-01           0.074          -0.022          -0.997       1.347e+00         -0.1753
 306       1.086e+01      -1.658e+01       1.998e-01          -0.002          -0.054          -0.999       1.305e+00         -0.1958
 307       1.021e+01      -1.658e+01       2.182e-01          -0.057          -0.079          -0.995       1.194e+00         -0.1700
 308       9.638e+00      -1.658e+01       2.649e-01          -0.109          -0.103          -0.989       1.016e+00         -0.1361
 309       9.178e+00      -1.658e+01       3.324e-01          -0.189          -0.141          -0.972       7.839e-01         -0.0940
 310       8.855e+00      -1.658e+01       4.233e-01          -0.379          -0.234          -0.895       5.305e-01          0.0835
 311       8.689e+00      -1.658e+01       5.506e-01          -0.790          -0.428          -0.439       3.646e-01          0.7325
 312       8.689e+00      -1.658e+01       6.994e-01          -0.795          -0.398           0.457       3.572e-01          0.0613
 313       8.855e+00      -1.657e+01       8.230e-01          -0.366          -0.162           0.916       5.205e-01         -0.9925
 314       9.178e+00      -1.657e+01       9.060e-01          -0.166          -0.059           0.984       7.751e-01         -0.7583
 315       9.638e+00      -1.657e+01       9.619e-01          -0.086          -0.019           0.996       1.009e+00         -0.6026
 316       1.021e+01      -1.657e+01       9.944e-01          -0.032           0.006           0.999       1.189e+00         -0.5365
 317       1.086e+01      -1.657e+01       1.001e+00           0.010           0.025           1.000       1.303e+00         -0.4947
 318       1.155e+01      -1.657e+01       9.810e-01           0.047           0.040           0.998       1.344e+00         -0.4671
 319       1.224e+01      -1.657e+01       9.339e-01           0.090           0.057           0.994       1.310e+00         -0.4404
 320       1.288e+01      -1.657e+01       8.586e-01           0.143           0.075           0.987       1.203e+00         -0.3863
 321       1.345e+01      -1.657e+01       7.603e-01           0.200           0.094           0.975       1.029e+00         -0.2961
 322       1.392e+01      -1.658e+01       6.549e-01           0.251           0.110           0.962       7.922e-01         -0.1779
 323       1.424e+01      -1.658e+01       5.652e-01           0.290           0.121           0.949       5.010e-01         -0.0865
 324       1.440e+01      -1.658e+01       5.033e-01           0.489           0.174           0.855       1.889e-01          0.1137
Strip 13
 325       1.384e+01      -1.460e+01       3.988e-01          -0.052          -0.056          -0.997       1.852e-01          0.1139
 326       1.366e+01      -1.460e+01       4.293e-01          -0.204          -0.099          -0.974       5.577e-01          0.2973
 327       1.331e+01      -1.460e+01       4.686e-01          -0.052          -0.055          -0.997       8.729e-01          0.3997
 328       1.282e+01      -1.460e+01       4.482e-01           0.111          -0.004          -0.994       1.155e+00          0.3553
 329       1.220e+01      -1.460e+01       3.486e-01           0.199           0.026          -0.980       1.386e+00          0.2039
 330       1.150e+01      -1.461e+01       2.153e-01           0.175           0.017          -0.984       1.513e+00         -0.0219
 331       1.075e+01      -1.461e+01       1.218e-01           0.074          -0.022          -0.997       1.538e+00         -0.1789
 332       1.001e+01      -1.461e+01       9.417e-02          -0.002          -0.054          -0.999       1.490e+00         -0.2005
 333       9.307e+00      -1.461e+01       1.140e-01          -0.057          -0.079          -0.995       1.363e+00         -0.1760
 334       8.689e+00      -1.461e+01       1.646e-01          -0.109          -0.103          -0.989       1.160e+00         -0.1441
 335       8.191e+00      -1.460e+01       2.375e-01          -0.189          -0.141          -0.972       8.951e-01         -0.1058
 336       7.843e+00      -1.460e+01       3.359e-01          -0.379          -0.234          -0.895       6.059e-01          0.0653
 337       7.663e+00      -1.460e+01       4.735e-01          -0.790          -0.428          -0.440       4.163e-01          0.7258
 338       7.663e+00      -1.460e+01       6.345e-01          -0.795          -0.399           0.457       4.076e-01          0.0881
 339       7.843e+00      -1.460e+01       7.681e-01          -0.366          -0.163           0.916       5.941e-01         -0.9620
 340       8.191e+00      -1.460e+01       8.579e-01          -0.166          -0.059           0.984       8.847e-01         -0.7413
 341       8.689e+00      -1.460e+01       9.185e-01          -0.086          -0.019           0.996       1.152e+00         -0.5916
 342       9.307e+00      -1.460e+01       9.536e-01          -0.032           0.006           0.999       1.357e+00         -0.5286
 343       1.001e+01      -1.460e+01       9.607e-01           0.010           0.025           1.000       1.488e+00         -0.4888
 344       1.075e+01      -1.460e+01       9.391e-01           0.047           0.040           0.998       1.535e+00         -0.4626
 345       1.150e+01      -1.460e+01       8.882e-01           0.090           0.057           0.994       1.495e+00         -0.4370
 346       1.220e+01      -1.460e+01       8.067e-01           0.143           0.075           0.987       1.374e+00         -0.3838
 347       1.282e+01      -1.460e+01       7.004e-01           0.200           0.094           0.975       1.175e+00         -0.2945
 348       1.331e+01      -1.460e+01       5.863e-01           0.251           0.110           0.962       9.045e-01         -0.1770
 349       1.366e+01      -1.460e+01       4.893e-01           0.290           0.121           0.949       5.720e-01         -0.0862
 350       1.384e+01      -1.460e+01       4.224e-01           0.488           0.174           0.855       2.157e-01          0.1134
Strip 14
 351       1.325e+01      -1.253e+01       3.119e-01          -0.052          -0.056          -0.997       2.091e-01          0.1134
 352       1.306e+01      -1.253e+01       3.448e-01          -0.204          -0.099          -0.974       6.295e-01          0.2969
 353       1.268e+01      -1.253e+01       3.873e-01          -0.052          -0.055          -0.997       9.852e-01          0.3993
 354       1.215e+01      -1.253e+01       3.653e-01           0.111          -0.004          -0.994       1.303e+00          0.3547
 355       1.148e+01      -1.253e+01       2.577e-01           0.199           0.026          -0.980       1.564e+00          0.2027
 356       1.072e+01      -1.253e+01       1.139e-01           0.175           0.017          -0.984       1.707e+00         -0.0245
 357       9.920e+00      -1.253e+01       1.292e-02           0.074          -0.022          -0.997       1.735e+00         -0.1831
 358       9.116e+00      -1.253e+01      -1.685e-02          -0.002          -0.054          -0.999       1.682e+00         -0.2060
 359       8.359e+00      -1.253e+01       4.567e-03          -0.057          -0.079          -0.995       1.539e+00         -0.1829
 360       7.692e+00      -1.253e+01       5.912e-02          -0.109          -0.103          -0.989       1.309e+00         -0.1532
 361       7.155e+00      -1.253e+01       1.379e-01          -0.189          -0.141          -0.972       1.010e+00         -0.1191
 362       6.779e+00      -1.253e+01       2.440e-01          -0.379          -0.234          -0.895       6.840e-01          0.0444
 363       6.585e+00      -1.253e+01       3.926e-01          -0.789          -0.428          -0.441       4.701e-01          0.7177
 364       6.585e+00      -1.253e+01       5.664e-01          -0.796          -0.399           0.456       4.599e-01          0.1176
 365       6.779e+00      -1.253e+01       7.106e-01          -0.366          -0.163           0.916       6.703e-01         -0.9274
 366       7.155e+00      -1.253e+01       8.075e-01          -0.166          -0.059           0.984       9.984e-01         -0.7218
 367       7.692e+00      -1.253e+01       8.728e-01          -0.086          -0.019           0.996       1.300e+00         -0.5789
 368       8.359e+00      -1.253e+01       9.107e-01          -0.032           0.006           0.999       1.532e+00         -0.5195
 369       9.116e+00      -1.253e+01       9.183e-01           0.010           0.025           1.000       1.679e+00         -0.4820
 370       9.920e+00      -1.253e+01       8.951e-01           0.047           0.040           0.998       1.732e+00         -0.4574
 371       1.072e+01      -1.253e+01       8.401e-01           0.090           0.057           0.994       1.688e+00         -0.4330
 372       1.148e+01      -1.253e+01       7.522e-01           0.143           0.075           0.987       1.551e+00         -0.3810
 373       1.215e+01      -1.253e+01       6.374e-01           0.200           0.094           0.975       1.327e+00         -0.2926
 374       1.268e+01      -1.253e+01       5.143e-01           0.251           0.110           0.962       1.021e+00         -0.1760
 375       1.306e+01      -1.253e+01       4.096e-01           0.290           0.121           0.949       6.457e-01         -0.0860
 376       1.325e+01      -1.253e+01       3.374e-01           0.488           0.174           0.855       2.435e-01          0.1129
Strip 15
 377       1.264e+01      -1.037e+01       2.215e-01          -0.052          -0.056          -0.997       2.334e-01          0.1126
 378       1.243e+01      -1.037e+01       2.569e-01          -0.204          -0.099          -0.974       7.027e-01          0.2963
 379       1.203e+01      -1.037e+01       3.026e-01          -0.052          -0.055          -0.997       1.100e+00          0.3988
 380       1.145e+01      -1.037e+01       2.789e-01           0.111          -0.004          -0.994       1.454e+00          0.3540
 381       1.073e+01      -1.037e+01       1.631e-01           0.199           0.026          -0.980       1.746e+00          0.2012
 382       9.918e+00      -1.037e+01       8.271e-03           0.175           0.017          -0.984       1.905e+00         -0.0276
 383       9.052e+00      -1.037e+01      -1.004e-01           0.074          -0.022          -0.997       1.937e+00         -0.1879
 384       8.187e+00      -1.037e+01      -1.324e-01          -0.002          -0.054          -0.999       1.878e+00         -0.2122
 385       7.372e+00      -1.037e+01      -1.094e-01          -0.057          -0.079          -0.995       1.718e+00         -0.1906
 386       6.654e+00      -1.037e+01      -5.067e-02          -0.109          -0.103          -0.989       1.461e+00         -0.1634
 387       6.076e+00      -1.037e+01       3.412e-02          -0.189          -0.141          -0.972       1.128e+00         -0.1340
 388       5.671e+00      -1.037e+01       1.484e-01          -0.379          -0.234          -0.895       7.637e-01          0.0210
 389       5.463e+00      -1.037e+01       3.083e-01          -0.789          -0.427          -0.441       5.248e-01          0.7080
 390       5.463e+00      -1.037e+01       4.954e-01          -0.796          -0.399           0.456       5.132e-01          0.1501
 391       5.671e+00      -1.037e+01       6.506e-01          -0.367          -0.163           0.916       7.479e-01         -0.8881
 392       6.076e+00      -1.037e+01       7.549e-01          -0.166          -0.059           0.984       1.114e+00         -0.6996
 393       6.654e+00      -1.037e+01       8.252e-01          -0.086          -0.019           0.996       1.451e+00         -0.5645
 394       7.372e+00      -1.037e+01       8.661e-01          -0.032           0.006           0.999       1.710e+00         -0.5091
 395       8.187e+00      -1.037e+01       8.743e-01           0.010           0.025           1.000       1.874e+00         -0.4742
 396       9.052e+00      -1.037e+01       8.492e-01           0.047           0.040           0.998       1.933e+00         -0.4515
 397       9.918e+00      -1.037e+01       7.901e-01           0.090           0.057           0.994       1.884e+00         -0.4287
 398       1.073e+01      -1.037e+01       6.954e-01           0.143           0.075           0.987       1.731e+00         -0.3779
 399       1.145e+01      -1.037e+01       5.719e-01           0.200           0.094           0.975       1.481e+00         -0.2907
 400       1.203e+01      -1.037e+01       4.393e-01           0.251           0.110           0.962       1.140e+00         -0.1751
 401       1.243e+01      -1.037e+01       3.267e-01           0.290           0.121           0.949       7.208e-01         -0.0859
 402       1.264e+01      -1.037e+01       2.489e-01           0.488           0.174           0.855       2.718e-01          0.1121
Strip 16
 403       1.201e+01      -8.140e+00       1.281e-01          -0.052          -0.056          -0.997       2.577e-01          0.1115
 404       1.178e+01      -8.140e+00       1.661e-01          -0.204          -0.099          -0.974       7.760e-01          0.2955
 405       1.135e+01      -8.140e+00       2.152e-01          -0.052          -0.055          -0.997       1.214e+00          0.3981
 406       1.073e+01      -8.140e+00       1.897e-01           0.111          -0.004          -0.994       1.606e+00          0.3530
 407       9.960e+00      -8.141e+00       6.545e-02           0.199           0.026          -0.980       1.927e+00          0.1992
 408       9.085e+00      -8.141e+00      -1.008e-01           0.175           0.017          -0.984       2.104e+00         -0.0315
 409       8.156e+00      -8.142e+00      -2.174e-01           0.074          -0.022          -0.997       2.139e+00         -0.1936
 410       7.227e+00      -8.142e+00      -2.518e-01          -0.002          -0.054          -0.999       2.073e+00         -0.2192
 411       6.352e+00      -8.142e+00      -2.271e-01          -0.057          -0.079          -0.995       1.897e+00         -0.1992
 412       5.582e+00      -8.141e+00      -1.641e-01          -0.109          -0.103          -0.989       1.614e+00         -0.1745
 413       4.962e+00      -8.141e+00      -7.305e-02          -0.189          -0.141          -0.972       1.246e+00         -0.1502
 414       4.527e+00      -8.141e+00       4.957e-02          -0.379          -0.234          -0.895       8.436e-01         -0.0052
 415       4.303e+00      -8.140e+00       2.213e-01          -0.789          -0.427          -0.442       5.797e-01          0.6962
 416       4.303e+00      -8.139e+00       4.220e-01          -0.796          -0.399           0.455       5.665e-01          0.1859
 417       4.527e+00      -8.138e+00       5.887e-01          -0.367          -0.163           0.916       8.257e-01         -0.8431
 418       4.962e+00      -8.138e+00       7.007e-01          -0.166          -0.059           0.984       1.230e+00         -0.6735
 419       5.582e+00      -8.138e+00       7.761e-01          -0.086          -0.019           0.996       1.602e+00         -0.5475
 420       6.352e+00      -8.138e+00       8.199e-01          -0.032           0.006           0.999       1.888e+00         -0.4969
 421       7.227e+00      -8.138e+00       8.288e-01           0.010           0.025           1.000       2.070e+00         -0.4654
 422       8.156e+00      -8.138e+00       8.019e-01           0.047           0.040           0.998       2.135e+00         -0.4451
 423       9.085e+00      -8.138e+00       7.384e-01           0.090           0.057           0.994       2.081e+00         -0.4242
 424       9.960e+00      -8.138e+00       6.368e-01           0.143           0.075           0.987       1.912e+00         -0.3749
 425       1.073e+01      -8.139e+00       5.041e-01           0.200           0.094           0.975       1.635e+00         -0.2890
 426       1.135e+01      -8.139e+00       3.619e-01           0.251           0.110           0.962       1.259e+00         -0.1744
 427       1.178e+01      -8.140e+00       2.410e-01           0.290           0.121           0.949       7.960e-01         -0.0863
 428       1.201e+01      -8.140e+00       1.575e-01           0.488           0.174           0.855       3.002e-01          0.1109
Strip 17
 429       1.136e+01      -5.855e+00       3.231e-02          -0.052          -0.056          -0.997       2.816e-01          0.1096
 430       1.112e+01      -5.854e+00       7.299e-02          -0.204          -0.099          -0.974       8.480e-01          0.2941
 431       1.066e+01      -5.854e+00       1.255e-01          -0.052          -0.055          -0.997       1.327e+00          0.3969
 432       9.991e+00      -5.854e+00       9.826e-02           0.111          -0.004          -0.994       1.755e+00          0.3513
 433       9.167e+00      -5.855e+00      -3.469e-02           0.199           0.026          -0.980       2.106e+00          0.1961
 434       8.231e+00      -5.855e+00      -2.126e-01           0.175           0.017          -0.984       2.298e+00         -0.0367
 435       7.237e+00      -5.856e+00      -3.374e-01           0.074          -0.022          -0.997       2.337e+00         -0.2007
 436       6.244e+00      -5.856e+00      -3.742e-01          -0.002          -0.054          -0.999       2.265e+00         -0.2272
 437       5.307e+00      -5.856e+00      -3.477e-01          -0.057          -0.079          -0.995       2.073e+00         -0.2082
 438       4.484e+00      -5.855e+00      -2.803e-01          -0.109          -0.103          -0.989       1.764e+00         -0.1856
 439       3.820e+00      -5.855e+00      -1.829e-01          -0.189          -0.141          -0.972       1.361e+00         -0.1667
 440       3.354e+00      -5.855e+00      -5.168e-02          -0.379          -0.234          -0.895       9.219e-01         -0.0333
 441       3.115e+00      -5.854e+00       1.321e-01          -0.789          -0.427          -0.442       6.336e-01          0.6822
 442       3.115e+00      -5.854e+00       3.469e-01          -0.796          -0.399           0.455       6.189e-01          0.2266
 443       3.354e+00      -5.853e+00       5.252e-01          -0.367          -0.163           0.916       9.020e-01         -0.7886
 444       3.820e+00      -5.853e+00       6.450e-01          -0.166          -0.059           0.984       1.344e+00         -0.6410
 445       4.484e+00      -5.853e+00       7.258e-01          -0.086          -0.019           0.996       1.750e+00         -0.5260
 446       5.308e+00      -5.853e+00       7.727e-01          -0.032           0.006           0.999       2.063e+00         -0.4820
 447       6.244e+00      -5.853e+00       7.821e-01           0.010           0.025           1.000       2.262e+00         -0.4551
 448       7.237e+00      -5.853e+00       7.533e-01           0.047           0.040           0.998       2.333e+00         -0.4384
 449       8.231e+00      -5.853e+00       6.854e-01           0.090           0.057           0.994       2.274e+00         -0.4202
 450       9.167e+00      -5.853e+00       5.767e-01           0.143           0.075           0.987       2.089e+00         -0.3729
 451       9.991e+00      -5.853e+00       4.348e-01           0.200           0.094           0.975       1.787e+00         -0.2884
 452       1.066e+01      -5.854e+00       2.826e-01           0.251           0.110           0.962       1.375e+00         -0.1748
 453       1.112e+01      -5.854e+00       1.531e-01           0.290           0.121           0.949       8.699e-01         -0.0876
 454       1.136e+01      -5.854e+00       6.382e-02           0.488           0.174           0.855       3.281e-01          0.1086
Strip 18
 455       1.070e+01      -3.529e+00      -6.511e-02          -0.052          -0.056          -0.997       3.045e-01          0.1063
 456       1.044e+01      -3.529e+00      -2.172e-02          -0.204          -0.099          -0.974       9.171e-01          0.2916
 457       9.948e+00      -3.529e+00       3.432e-02          -0.052          -0.055          -0.997       1.435e+00          0.3945
 458       9.240e+00      -3.529e+00       5.231e-03           0.111          -0.004          -0.994       1.897e+00          0.3478
 459       8.361e+00      -3.529e+00      -1.366e-01           0.199           0.026          -0.980       2.277e+00          0.1900
 460       7.363e+00      -3.529e+00      -3.263e-01           0.175           0.017          -0.984       2.485e+00         -0.0460
 461       6.303e+00      -3.529e+00      -4.594e-01           0.074          -0.022          -0.997       2.527e+00         -0.2108
 462       5.243e+00      -3.529e+00      -4.987e-01          -0.002          -0.054          -0.999       2.450e+00         -0.2356
 463       4.244e+00      -3.529e+00      -4.705e-01          -0.057          -0.079          -0.995       2.241e+00         -0.2148
 464       3.366e+00      -3.529e+00      -3.985e-01          -0.109          -0.103          -0.989       1.907e+00         -0.1924
 465       2.657e+00      -3.529e+00      -2.947e-01          -0.189          -0.141          -0.972       1.472e+00         -0.1780
 466       2.161e+00      -3.529e+00      -1.547e-01          -0.379          -0.234          -0.896       9.972e-01         -0.0588
 467       1.906e+00      -3.529e+00       4.127e-02          -0.789          -0.427          -0.442       6.853e-01          0.6686
 468       1.906e+00      -3.528e+00       2.704e-01          -0.796          -0.399           0.454       6.691e-01          0.2776
 469       2.161e+00      -3.528e+00       4.606e-01          -0.367          -0.163           0.916       9.753e-01         -0.7150
 470       2.657e+00      -3.528e+00       5.884e-01          -0.166          -0.059           0.984       1.453e+00         -0.5940
 471       3.366e+00      -3.528e+00       6.746e-01          -0.086          -0.019           0.996       1.892e+00         -0.4945
 472       4.244e+00      -3.528e+00       7.246e-01          -0.032           0.006           0.999       2.231e+00         -0.4605
 473       5.243e+00      -3.528e+00       7.346e-01           0.010           0.025           1.000       2.446e+00         -0.4419
 474       6.303e+00      -3.528e+00       7.040e-01           0.047           0.040           0.998       2.523e+00         -0.4320
 475       7.363e+00      -3.528e+00       6.315e-01           0.090           0.057           0.994       2.459e+00         -0.4189
 476       8.361e+00      -3.528e+00       5.156e-01           0.143           0.075           0.987       2.259e+00         -0.3750
 477       9.240e+00      -3.528e+00       3.641e-01           0.200           0.094           0.975       1.933e+00         -0.2917
 478       9.948e+00      -3.528e+00       2.018e-01           0.251           0.110           0.962       1.488e+00         -0.1784
 479       1.044e+01      -3.529e+00       6.376e-02           0.290           0.121           0.949       9.408e-01         -0.0916
 480       1.070e+01      -3.529e+00      -3.150e-02           0.488           0.174           0.855       3.549e-01          0.1041
Strip 19
 481       1.003e+01      -1.179e+00      -1.635e-01          -0.052          -0.056          -0.997       3.260e-01          0.1013
 482       9.761e+00      -1.179e+00      -1.174e-01          -0.204          -0.099          -0.974       9.817e-01          0.2879
 483       9.234e+00      -1.179e+00      -5.784e-02          -0.052          -0.055          -0.997       1.536e+00          0.3893
 484       8.481e+00      -1.179e+00      -8.876e-02           0.111          -0.004          -0.994       2.031e+00          0.3353
 485       7.547e+00      -1.179e+00      -2.395e-01           0.199           0.026          -0.980       2.437e+00          0.1669
 486       6.485e+00      -1.179e+00      -4.412e-01           0.175           0.017          -0.984       2.660e+00         -0.0735
 487       5.359e+00      -1.179e+00      -5.828e-01           0.074          -0.022          -0.997       2.705e+00         -0.2288
 488       4.232e+00      -1.179e+00      -6.245e-01          -0.002          -0.054          -0.999       2.622e+00         -0.2372
 489       3.170e+00      -1.179e+00      -5.945e-01          -0.057          -0.079          -0.995       2.399e+00         -0.2022
 490       2.236e+00      -1.179e+00      -5.180e-01          -0.109          -0.103          -0.989       2.042e+00         -0.1698
 491       1.483e+00      -1.179e+00      -4.076e-01          -0.189          -0.141          -0.972       1.576e+00         -0.1531
 492       9.557e-01      -1.179e+00      -2.588e-01          -0.379          -0.234          -0.896       1.068e+00         -0.0544
 493       6.841e-01      -1.179e+00      -5.045e-02          -0.788          -0.427          -0.443       7.337e-01          0.6545
 494       6.841e-01      -1.179e+00       1.932e-01          -0.797          -0.399           0.454       7.161e-01          0.3589
 495       9.557e-01      -1.179e+00       3.953e-01          -0.367          -0.163           0.916       1.044e+00         -0.5666
 496       1.483e+00      -1.179e+00       5.312e-01          -0.166          -0.059           0.984       1.556e+00         -0.4905
 497       2.236e+00      -1.179e+00       6.228e-01          -0.086          -0.019           0.996       2.025e+00         -0.4278
 498       3.170e+00      -1.179e+00       6.760e-01          -0.032           0.006           0.999       2.388e+00         -0.4200
 499       4.232e+00      -1.179e+00       6.867e-01           0.010           0.025           1.000       2.618e+00         -0.4208
 500       5.359e+00      -1.179e+00       6.541e-01           0.047           0.040           0.998       2.701e+00         -0.4279
 501       6.485e+00      -1.179e+00       5.770e-01           0.090           0.057           0.994       2.632e+00         -0.4296
 502       7.547e+00      -1.179e+00       4.538e-01           0.143           0.075           0.987       2.419e+00         -0.3946
 503       8.481e+00      -1.179e+00       2.928e-01           0.200           0.094           0.975       2.069e+00         -0.3123
 504       9.234e+00      -1.179e+00       1.202e-01           0.251           0.110           0.962       1.592e+00         -0.1950
 505       9.761e+00      -1.179e+00      -2.654e-02           0.290           0.121           0.949       1.007e+00         -0.1036
 506       1.003e+01      -1.179e+00      -1.278e-01           0.488           0.174           0.855       3.799e-01          0.0944
Strip 20
 507       1.003e+01       1.179e+00      -1.635e-01          -0.052           0.056          -0.997       3.260e-01          0.1013
 508       9.761e+00       1.179e+00      -1.174e-01          -0.204           0.099          -0.974       9.817e-01          0.2879
 509       9.234e+00       1.179e+00      -5.784e-02          -0.052           0.055          -0.997       1.536e+00          0.3893
 510       8.481e+00       1.179e+00      -8.876e-02           0.111           0.004          -0.994       2.031e+00          0.3353
 511       7.547e+00       1.179e+00      -2.395e-01           0.199          -0.026          -0.980       2.437e+00          0.1669
 512       6.485e+00       1.179e+00      -4.412e-01           0.175          -0.017          -0.984       2.660e+00         -0.0735
 513       5.359e+00       1.179e+00      -5.828e-01           0.074           0.022          -0.997       2.705e+00         -0.2288
 514       4.232e+00       1.179e+00      -6.245e-01          -0.002           0.054          -0.999       2.622e+00         -0.2372
 515       3.170e+00       1.179e+00      -5.945e-01          -0.057           0.079          -0.995       2.399e+00         -0.2022
 516       2.236e+00       1.179e+00      -5.180e-01          -0.109           0.103          -0.989       2.042e+00         -0.1698
 517       1.483e+00       1.179e+00      -4.076e-01          -0.189           0.141          -0.972       1.576e+00         -0.1531
 518       9.557e-01       1.179e+00      -2.588e-01          -0.379           0.234          -0.896       1.068e+00         -0.0544
 519       6.841e-01       1.179e+00      -5.045e-02          -0.788           0.427          -0.443       7.337e-01          0.6545
 520       6.841e-01       1.179e+00       1.932e-01          -0.797           0.399           0.454       7.161e-01          0.3589
 521       9.557e-01       1.179e+00       3.953e-01          -0.367           0.163           0.916       1.044e+00         -0.5666
 522       1.483e+00       1.179e+00       5.312e-01          -0.166           0.059           0.984       1.556e+00         -0.4905
 523       2.236e+00       1.179e+00       6.228e-01          -0.086           0.019           0.996       2.025e+00         -0.4278
 524       3.170e+00       1.179e+00       6.760e-01          -0.032          -0.006           0.999       2.388e+00         -0.4200
 525       4.232e+00       1.179e+00       6.867e-01           0.010          -0.025           1.000       2.618e+00         -0.4208
 526       5.359e+00       1.179e+00       6.541e-01           0.047          -0.040           0.998       2.701e+00         -0.4279
 527       6.485e+00       1.179e+00       5.770e-01           0.090          -0.057           0.994       2.632e+00         -0.4296
 528       7.547e+00       1.179e+00       4.538e-01           0.143          -0.075           0.987       2.419e+00         -0.3946
 529       8.481e+00       1.179e+00       2.928e-01           0.200          -0.094           0.975       2.069e+00         -0.3123
 530       9.234e+00       1.179e+00       1.202e-01           0.251          -0.110           0.962       1.592e+00         -0.1950
 531       9.761e+00       1.179e+00      -2.654e-02           0.290          -0.121           0.949       1.007e+00         -0.1036
 532       1.003e+01       1.179e+00      -1.278e-01           0.488          -0.174           0.855       3.799e-01          0.0944
Strip 21
 533       1.070e+01       3.529e+00      -6.511e-02          -0.052           0.056          -0.997       3.045e-01          0.1063
 534       1.044e+01       3.529e+00      -2.172e-02          -0.204           0.099          -0.974       9.171e-01          0.2916
 535       9.948e+00       3.529e+00       3.432e-02          -0.052           0.055          -0.997       1.435e+00          0.3945
 536       9.240e+00       3.529e+00       5.231e-03           0.111           0.004          -0.994       1.897e+00          0.3478
 537       8.361e+00       3.529e+00      -1.366e-01           0.199          -0.026          -0.980       2.277e+00          0.1900
 538       7.363e+00       3.529e+00      -3.263e-01           0.175          -0.017          -0.984       2.485e+00         -0.0460
 539       6.303e+00       3.529e+00      -4.594e-01           0.074           0.022          -0.997       2.527e+00         -0.2108
 540       5.243e+00       3.529e+00      -4.987e-01          -0.002           0.054          -0.999       2.450e+00         -0.2356
 541       4.244e+00       3.529e+00      -4.705e-01          -0.057           0.079          -0.995       2.241e+00         -0.2148
 542       3.366e+00       3.529e+00      -3.985e-01          -0.109           0.103          -0.989       1.907e+00         -0.1924
 543       2.657e+00       3.529e+00      -2.947e-01          -0.189           0.141          -0.972       1.472e+00         -0.1780
 544       2.161e+00       3.529e+00      -1.547e-01          -0.379           0.234          -0.896       9.972e-01         -0.0588
 545       1.906e+00       3.529e+00       4.127e-02          -0.789           0.427          -0.442       6.853e-01          0.6686
 546       1.906e+00       3.528e+00       2.704e-01          -0.796           0.399           0.454       6.691e-01          0.2776
 547       2.161e+00       3.528e+00       4.606e-01          -0.367           0.163           0.916       9.753e-01         -0.7150
 548       2.657e+00       3.528e+00       5.884e-01          -0.166           0.059           0.984       1.453e+00         -0.5940
 549       3.366e+00       3.528e+00       6.746e-01          -0.086           0.019           0.996       1.892e+00         -0.4945
 550       4.244e+00       3.528e+00       7.246e-01          -0.032          -0.006           0.999       2.231e+00         -0.4605
 551       5.243e+00       3.528e+00       7.346e-01           0.010          -0.025           1.000       2.446e+00         -0.4419
 552       6.303e+00       3.528e+00       7.040e-01           0.047          -0.040           0.998       2.523e+00         -0.4320
 553       7.363e+00       3.528e+00       6.315e-01           0.090          -0.057           0.994       2.459e+00         -0.4189
 554       8.361e+00       3.528e+00       5.156e-01           0.143          -0.075           0.987       2.259e+00         -0.3750
 555       9.240e+00       3.528e+00       3.641e-01           0.200          -0.094           0.975       1.933e+00         -0.2917
 556       9.948e+00       3.528e+00       2.018e-01           0.251          -0.110           0.962       1.488e+00         -0.1784
 557       1.044e+01       3.529e+00       6.376e-02           0.290          -0.121           0.949       9.408e-01         -0.0916
 558       1.070e+01       3.529e+00      -3.150e-02           0.488          -0.174           0.855       3.549e-01          0.1041
Strip 22
 559       1.136e+01       5.855e+00       3.231e-02          -0.052           0.056          -0.997       2.816e-01          0.1096
 560       1.112e+01       5.854e+00       7.299e-02          -0.204           0.099          -0.974       8.480e-01          0.2941
 561       1.066e+01       5.854e+00       1.255e-01          -0.052           0.055          -0.997       1.327e+00          0.3969
 562       9.991e+00       5.854e+00       9.826e-02           0.111           0.004          -0.994       1.755e+00          0.3513
 563       9.167e+00       5.855e+00      -3.469e-02           0.199          -0.026          -0.980       2.106e+00          0.1961
[...]
 853       1.435e+01       2.563e+01       6.960e-01          -0.057           0.079          -0.995       4.033e-01         -0.1645
 854       1.399e+01       2.563e+01       7.252e-01          -0.110           0.103          -0.989       3.429e-01         -0.1246
 855       1.370e+01       2.563e+01       7.674e-01          -0.189           0.141          -0.972       2.645e-01         -0.0726
 856       1.350e+01       2.563e+01       8.243e-01          -0.380           0.235          -0.895       1.787e-01          0.1209
 857       1.340e+01       2.563e+01       9.039e-01          -0.792           0.429          -0.434       1.228e-01          0.7443
 858       1.340e+01       2.563e+01       9.971e-01          -0.793           0.397           0.463       1.210e-01         -0.0044
 859       1.350e+01       2.562e+01       1.074e+00          -0.365           0.162           0.917       1.763e-01         -1.0543
 860       1.370e+01       2.562e+01       1.126e+00          -0.165           0.059           0.984       2.622e-01         -0.7877
 861       1.399e+01       2.562e+01       1.161e+00          -0.086           0.019           0.996       3.410e-01         -0.6162
 862       1.435e+01       2.562e+01       1.182e+00          -0.032          -0.006           0.999       4.018e-01         -0.5410
 863       1.475e+01       2.562e+01       1.186e+00           0.010          -0.025           1.000       4.403e-01         -0.4925
 864       1.518e+01       2.562e+01       1.173e+00           0.047          -0.040           0.998       4.540e-01         -0.4602
 865       1.562e+01       2.562e+01       1.144e+00           0.090          -0.057           0.994       4.423e-01         -0.4312
 866       1.602e+01       2.562e+01       1.097e+00           0.143          -0.075           0.987       4.063e-01         -0.3769
 867       1.638e+01       2.563e+01       1.035e+00           0.200          -0.094           0.975       3.474e-01         -0.2880
 868       1.667e+01       2.563e+01       9.692e-01           0.252          -0.110           0.962       2.673e-01         -0.1713
 869       1.687e+01       2.563e+01       9.130e-01           0.291          -0.121           0.949       1.690e-01         -0.0817
 870       1.697e+01       2.563e+01       8.743e-01           0.490          -0.174           0.854       6.370e-02          0.1198
Strip 34
 871       1.724e+01       2.658e+01       9.004e-01          -0.052           0.056          -0.997       4.252e-02          0.1142
 872       1.714e+01       2.658e+01       9.169e-01          -0.205           0.099          -0.974       1.279e-01          0.2932
 873       1.696e+01       2.658e+01       9.382e-01          -0.052           0.055          -0.997       2.004e-01          0.3919
 874       1.668e+01       2.658e+01       9.272e-01           0.111           0.004          -0.994       2.653e-01          0.3462
 875       1.635e+01       2.658e+01       8.731e-01           0.199          -0.026          -0.980       3.187e-01          0.1957
 876       1.597e+01       2.658e+01       8.009e-01           0.175          -0.017          -0.984       3.478e-01         -0.0274
 877       1.556e+01       2.658e+01       7.501e-01           0.074           0.022          -0.997       3.533e-01         -0.1821
 878       1.516e+01       2.658e+01       7.352e-01          -0.002           0.054          -0.999       3.422e-01         -0.2019
 879       1.478e+01       2.658e+01       7.459e-01          -0.057           0.079          -0.995       3.129e-01         -0.1741
 880       1.444e+01       2.658e+01       7.733e-01          -0.110           0.103          -0.989       2.660e-01         -0.1355
 881       1.417e+01       2.658e+01       8.129e-01          -0.189           0.141          -0.972       2.052e-01         -0.0853
 882       1.399e+01       2.658e+01       8.662e-01          -0.381           0.235          -0.894       1.386e-01          0.1047
 883       1.389e+01       2.658e+01       9.409e-01          -0.793           0.429          -0.433       9.524e-02          0.7380
 884       1.389e+01       2.657e+01       1.028e+00          -0.792           0.397           0.464       9.394e-02          0.0138
 885       1.399e+01       2.657e+01       1.101e+00          -0.365           0.162           0.917       1.369e-01         -1.0277
 886       1.417e+01       2.657e+01       1.149e+00          -0.165           0.059           0.985       2.035e-01         -0.7690
 887       1.444e+01       2.657e+01       1.182e+00          -0.086           0.019           0.996       2.647e-01         -0.5997
 888       1.478e+01       2.657e+01       1.201e+00          -0.032          -0.006           0.999       3.118e-01         -0.5240
 889       1.516e+01       2.657e+01       1.205e+00           0.010          -0.025           1.000       3.416e-01         -0.4742
 890       1.556e+01       2.657e+01       1.193e+00           0.047          -0.040           0.998       3.523e-01         -0.4412
 891       1.597e+01       2.657e+01       1.166e+00           0.090          -0.057           0.994       3.432e-01         -0.4127
 892       1.635e+01       2.657e+01       1.122e+00           0.143          -0.075           0.987       3.152e-01         -0.3609
 893       1.668e+01       2.657e+01       1.064e+00           0.200          -0.094           0.975       2.695e-01         -0.2760
 894       1.696e+01       2.657e+01       1.002e+00           0.252          -0.110           0.962       2.074e-01         -0.1635
 895       1.714e+01       2.658e+01       9.494e-01           0.291          -0.121           0.949       1.311e-01         -0.0771
 896       1.724e+01       2.658e+01       9.132e-01           0.490          -0.174           0.854       4.941e-02          0.1239
Strip 35
 897       1.746e+01       2.734e+01       9.324e-01          -0.052           0.056          -0.997       3.158e-02          0.1096
 898       1.737e+01       2.734e+01       9.481e-01          -0.205           0.099          -0.974       9.498e-02          0.2862
 899       1.719e+01       2.734e+01       9.683e-01          -0.052           0.055          -0.997       1.488e-01          0.3833
 900       1.693e+01       2.734e+01       9.578e-01           0.111           0.004          -0.994       1.971e-01          0.3378
 901       1.662e+01       2.734e+01       9.067e-01           0.199          -0.026          -0.980       2.367e-01          0.1888
 902       1.625e+01       2.735e+01       8.383e-01           0.175          -0.017          -0.984       2.583e-01         -0.0329
 903       1.587e+01       2.735e+01       7.903e-01           0.074           0.022          -0.997       2.624e-01         -0.1879
 904       1.549e+01       2.735e+01       7.762e-01          -0.002           0.054          -0.999       2.542e-01         -0.2107
 905       1.513e+01       2.735e+01       7.863e-01          -0.057           0.079          -0.995       2.323e-01         -0.1874
 906       1.481e+01       2.735e+01       8.123e-01          -0.110           0.103          -0.989       1.976e-01         -0.1531
 907       1.456e+01       2.735e+01       8.497e-01          -0.189           0.141          -0.972       1.523e-01         -0.1075
 908       1.438e+01       2.734e+01       9.002e-01          -0.381           0.235          -0.894       1.029e-01          0.0752
 909       1.429e+01       2.734e+01       9.708e-01          -0.793           0.429          -0.432       7.070e-02          0.7244
 910       1.429e+01       2.734e+01       1.053e+00          -0.792           0.396           0.464       6.980e-02          0.0428
 911       1.438e+01       2.734e+01       1.122e+00          -0.365           0.162           0.917       1.017e-01         -0.9848
 912       1.456e+01       2.734e+01       1.168e+00          -0.165           0.059           0.985       1.512e-01         -0.7379
 913       1.481e+01       2.733e+01       1.199e+00          -0.086           0.019           0.996       1.966e-01         -0.5710
 914       1.513e+01       2.733e+01       1.217e+00          -0.032          -0.006           0.999       2.316e-01         -0.4930
 915       1.549e+01       2.733e+01       1.221e+00           0.010          -0.025           1.000       2.537e-01         -0.4403
 916       1.587e+01       2.733e+01       1.210e+00           0.047          -0.040           0.998       2.616e-01         -0.4064
 917       1.625e+01       2.733e+01       1.183e+00           0.090          -0.057           0.994       2.548e-01         -0.3801
 918       1.662e+01       2.734e+01       1.142e+00           0.143          -0.075           0.987       2.340e-01         -0.3340
 919       1.693e+01       2.734e+01       1.087e+00           0.200          -0.094           0.975       2.001e-01         -0.2572
 920       1.719e+01       2.734e+01       1.029e+00           0.252          -0.110           0.962       1.540e-01         -0.1529
 921       1.737e+01       2.734e+01       9.789e-01           0.291          -0.121           0.949       9.736e-02         -0.0736
 922       1.746e+01       2.734e+01       9.445e-01           0.490          -0.174           0.854       3.668e-02          0.1260
Strip 36
 923       1.762e+01       2.792e+01       9.567e-01          -0.052           0.056          -0.997       2.173e-02          0.0886
 924       1.754e+01       2.792e+01       9.716e-01          -0.205           0.099          -0.974       6.536e-02          0.2603
 925       1.736e+01       2.792e+01       9.910e-01          -0.052           0.055          -0.997       1.024e-01          0.3561
 926       1.712e+01       2.792e+01       9.809e-01           0.111           0.004          -0.994       1.356e-01          0.3152
 927       1.682e+01       2.792e+01       9.320e-01           0.199          -0.026          -0.980       1.629e-01          0.1746
 928       1.647e+01       2.792e+01       8.666e-01           0.175          -0.017          -0.984       1.778e-01         -0.0371
 929       1.611e+01       2.793e+01       8.207e-01           0.074           0.022          -0.997       1.806e-01         -0.1851
 930       1.574e+01       2.793e+01       8.072e-01          -0.002           0.054          -0.999       1.749e-01         -0.2095
 931       1.539e+01       2.793e+01       8.169e-01          -0.057           0.079          -0.995       1.599e-01         -0.1963
 932       1.509e+01       2.793e+01       8.417e-01          -0.110           0.103          -0.989       1.359e-01         -0.1761
 933       1.485e+01       2.792e+01       8.775e-01          -0.189           0.141          -0.972       1.048e-01         -0.1437
 934       1.468e+01       2.792e+01       9.258e-01          -0.381           0.235          -0.894       7.080e-02          0.0243
 935       1.459e+01       2.792e+01       9.934e-01          -0.793           0.429          -0.432       4.864e-02          0.6927
 936       1.459e+01       2.792e+01       1.072e+00          -0.792           0.396           0.465       4.806e-02          0.0757
 937       1.468e+01       2.792e+01       1.138e+00          -0.365           0.162           0.917       7.002e-02         -0.9261
 938       1.485e+01       2.791e+01       1.182e+00          -0.165           0.059           0.985       1.040e-01         -0.6907
 939       1.509e+01       2.791e+01       1.212e+00          -0.086           0.019           0.996       1.353e-01         -0.5223
 940       1.539e+01       2.791e+01       1.229e+00          -0.032          -0.006           0.999       1.594e-01         -0.4378
 941       1.574e+01       2.791e+01       1.232e+00           0.010          -0.025           1.000       1.746e-01         -0.3827
 942       1.611e+01       2.791e+01       1.222e+00           0.047          -0.040           0.998       1.800e-01         -0.3514
 943       1.647e+01       2.791e+01       1.197e+00           0.090          -0.057           0.994       1.754e-01         -0.3320
 944       1.682e+01       2.791e+01       1.157e+00           0.143          -0.075           0.987       1.611e-01         -0.2972
 945       1.712e+01       2.792e+01       1.105e+00           0.200          -0.094           0.975       1.377e-01         -0.2358
 946       1.736e+01       2.792e+01       1.049e+00           0.252          -0.110           0.962       1.060e-01         -0.1482
 947       1.754e+01       2.792e+01       1.001e+00           0.291          -0.121           0.949       6.700e-02         -0.0845
 948       1.762e+01       2.792e+01       9.683e-01           0.490          -0.174           0.854       2.524e-02          0.1128
Strip 37
 949       1.773e+01       2.831e+01       9.729e-01          -0.052           0.056          -0.997       1.270e-02         -0.0022
 950       1.765e+01       2.831e+01       9.874e-01          -0.205           0.099          -0.974       3.820e-02          0.1524
 951       1.748e+01       2.831e+01       1.006e+00          -0.052           0.055          -0.997       5.986e-02          0.2552
 952       1.724e+01       2.831e+01       9.965e-01           0.111           0.004          -0.994       7.929e-02          0.2456
 953       1.695e+01       2.831e+01       9.490e-01           0.198          -0.026          -0.980       9.526e-02          0.1388
 954       1.662e+01       2.831e+01       8.856e-01           0.175          -0.017          -0.984       1.040e-01         -0.0422
 955       1.626e+01       2.831e+01       8.411e-01           0.074           0.022          -0.997       1.056e-01         -0.1671
 956       1.591e+01       2.831e+01       8.279e-01          -0.002           0.054          -0.999       1.022e-01         -0.1854
 957       1.557e+01       2.831e+01       8.374e-01          -0.057           0.079          -0.995       9.347e-02         -0.1805
 958       1.528e+01       2.831e+01       8.614e-01          -0.110           0.103          -0.989       7.946e-02         -0.1832
 959       1.504e+01       2.831e+01       8.962e-01          -0.189           0.141          -0.972       6.126e-02         -0.1894
 960       1.487e+01       2.831e+01       9.430e-01          -0.381           0.235          -0.894       4.137e-02         -0.0692
 961       1.479e+01       2.831e+01       1.009e+00          -0.794           0.429          -0.431       2.842e-02          0.5896
 962       1.479e+01       2.831e+01       1.085e+00          -0.791           0.396           0.466       2.810e-02          0.0759
 963       1.487e+01       2.830e+01       1.149e+00          -0.365           0.162           0.917       4.094e-02         -0.8500
 964       1.504e+01       2.830e+01       1.192e+00          -0.165           0.059           0.985       6.083e-02         -0.6096
 965       1.528e+01       2.830e+01       1.220e+00          -0.086           0.019           0.996       7.909e-02         -0.4344
 966       1.557e+01       2.830e+01       1.237e+00          -0.032          -0.006           0.999       9.316e-02         -0.3526
 967       1.591e+01       2.830e+01       1.240e+00           0.010          -0.025           1.000       1.021e-01         -0.3068
 968       1.626e+01       2.830e+01       1.230e+00           0.047          -0.040           0.998       1.052e-01         -0.2843
 969       1.662e+01       2.830e+01       1.206e+00           0.090          -0.057           0.994       1.025e-01         -0.2757
 970       1.695e+01       2.830e+01       1.167e+00           0.143          -0.075           0.987       9.414e-02         -0.2629
 971       1.724e+01       2.830e+01       1.116e+00           0.200          -0.094           0.975       8.050e-02         -0.2401
 972       1.748e+01       2.831e+01       1.062e+00           0.252          -0.110           0.962       6.193e-02         -0.2016
 973       1.765e+01       2.831e+01       1.016e+00           0.291          -0.121           0.949       3.916e-02         -0.1826
 974       1.773e+01       2.831e+01       9.842e-01           0.490          -0.174           0.854       1.475e-02          0.0094
Strip 38
 975       1.779e+01       2.850e+01       9.811e-01          -0.052           0.056          -0.997       4.178e-03         -0.1056
 976       1.770e+01       2.850e+01       9.954e-01          -0.205           0.099          -0.974       1.256e-02         -0.0034
 977       1.754e+01       2.850e+01       1.014e+00          -0.052           0.055          -0.997       1.969e-02          0.0767
 978       1.731e+01       2.850e+01       1.004e+00           0.111           0.004          -0.994       2.608e-02          0.1046
 979       1.702e+01       2.851e+01       9.576e-01           0.198          -0.026          -0.980       3.133e-02          0.0608
 980       1.669e+01       2.851e+01       8.951e-01           0.175          -0.017          -0.984       3.419e-02         -0.0530
 981       1.634e+01       2.851e+01       8.513e-01           0.074           0.022          -0.997       3.473e-02         -0.1358
 982       1.599e+01       2.851e+01       8.384e-01          -0.002           0.054          -0.999       3.363e-02         -0.1465
 983       1.566e+01       2.851e+01       8.477e-01          -0.057           0.079          -0.995       3.074e-02         -0.1438
 984       1.537e+01       2.851e+01       8.713e-01          -0.110           0.103          -0.989       2.613e-02         -0.1497
 985       1.514e+01       2.851e+01       9.055e-01          -0.190           0.141          -0.972       2.015e-02         -0.1684
 986       1.497e+01       2.851e+01       9.516e-01          -0.381           0.235          -0.894       1.360e-02         -0.1016
 987       1.489e+01       2.850e+01       1.016e+00          -0.794           0.429          -0.431       9.346e-03          0.4902
 988       1.489e+01       2.850e+01       1.092e+00          -0.791           0.396           0.466       9.243e-03          0.0988
 989       1.497e+01       2.850e+01       1.154e+00          -0.364           0.162           0.917       1.347e-02         -0.7025
 990       1.514e+01       2.850e+01       1.196e+00          -0.165           0.059           0.985       2.001e-02         -0.4797
 991       1.537e+01       2.850e+01       1.225e+00          -0.086           0.019           0.996       2.601e-02         -0.3349
 992       1.566e+01       2.849e+01       1.241e+00          -0.032          -0.006           0.999       3.064e-02         -0.2766
 993       1.599e+01       2.849e+01       1.244e+00           0.010          -0.025           1.000       3.357e-02         -0.2433
 994       1.634e+01       2.850e+01       1.234e+00           0.047          -0.040           0.998       3.461e-02         -0.2234
 995       1.669e+01       2.850e+01       1.210e+00           0.090          -0.057           0.994       3.371e-02         -0.2108
 996       1.702e+01       2.850e+01       1.172e+00           0.143          -0.075           0.987       3.096e-02         -0.1973
 997       1.731e+01       2.850e+01       1.122e+00           0.200          -0.094           0.975       2.647e-02         -0.1961
 998       1.754e+01       2.850e+01       1.069e+00           0.252          -0.110           0.962       2.037e-02         -0.2174
 999       1.770e+01       2.850e+01       1.024e+00           0.291          -0.121           0.949       1.288e-02         -0.2609
1000       1.779e+01       2.850e+01       9.921e-01           0.490          -0.174           0.854       4.851e-03         -0.0912










