xflr5 v6.47

Plane Name
T1-10.0 m/s-Panel-Inviscid
QInf  =   10.000000 m/s
Alpha =   10.000000
Beta  =    0.000°
Phi   =    0.000°
Ctrl  =    0.000
CL    =    1.252323
Cy    =    0.000000
Cd    =    0.054091     ICd   =    0.054091     PCd   =    0.000000
Cl   = -9.6656e-10
Cm   =    -1.60557
ICn   =   -0.000000     PCn   =   -0.000000 
XCP   =    8.851810     YCP   =    0.000000     ZCP   =    0.670731  
XNP   =    0.000000
Bending = 154616.678269

Main Wing
  y-span        Chord      Ai         Cl        PCd          ICd        CmGeom    CmAirf@chord/4    XTrtop    XTrBot      XCP       BM
  -28.5212     2.9417   -10.264    0.433835    0.000000    0.078563   -2.636686    0.004805     0.0000    0.0000    0.2359    0.0000
  -28.3264     2.9883    -7.639    0.712914    0.000000    0.095602   -3.942496   -0.033996     0.0000    0.0000    0.2908    1.5358
  -27.9381     3.0813    -6.091    0.955671    0.000000    0.101954   -4.908066   -0.041929     0.0000    0.0000    0.2882   19.8914
  -27.3589     3.2200    -4.859    1.136247    0.000000    0.096548   -5.509657   -0.059790     0.0000    0.0000    0.2970   99.5763
  -26.5928     3.4034    -3.913    1.258560    0.000000    0.086034   -5.676669   -0.075909     0.0000    0.0000    0.3046   324.4961
  -25.6451     3.6303    -3.204    1.333333    0.000000    0.074558   -5.498829   -0.087277     0.0000    0.0000    0.3097   823.2853
  -24.5222     3.8991    -2.706    1.373108    0.000000    0.064815   -5.100934   -0.094295     0.0000    0.0000    0.3129   1771.0349
  -23.2318     4.2080    -2.388    1.388739    0.000000    0.057832   -4.588749   -0.098339     0.0000    0.0000    0.3150   3388.7021
  -21.7827     4.5550    -2.210    1.388056    0.000000    0.053473   -4.035573   -0.100577     0.0000    0.0000    0.3166   5940.7465
  -20.1848     4.9375    -2.134    1.376165    0.000000    0.051157   -3.486552   -0.101744     0.0000    0.0000    0.3181   9730.7132
  -18.4490     5.3531    -2.128    1.356224    0.000000    0.050281   -2.967146   -0.102282     0.0000    0.0000    0.3196   15094.1925
  -16.5872     5.7988    -2.173    1.330097    0.000000    0.050342   -2.490233   -0.102453     0.0000    0.0000    0.3213   22388.6953
  -14.6121     6.2717    -2.253    1.298789    0.000000    0.050934   -2.061105   -0.102407     0.0000    0.0000    0.3231   31980.2319
  -12.5371     6.7685    -2.354    1.262719    0.000000    0.051720   -1.680478   -0.102272     0.0000    0.0000    0.3253   44226.6587
  -10.3766     7.2857    -2.465    1.221866    0.000000    0.052377   -1.346777   -0.102210     0.0000    0.0000    0.3281   59458.1568
   -8.1451     7.8200    -2.569    1.175805    0.000000    0.052495   -1.057357   -0.102510     0.0000    0.0000    0.3317   77955.4631
   -5.8580     8.3675    -2.642    1.123711    0.000000    0.051480   -0.809595   -0.103858     0.0000    0.0000    0.3371   99926.6243
   -3.5309     8.9247    -2.622    1.064055    0.000000    0.048116   -0.602061   -0.107962     0.0000    0.0000    0.3464   125483.2681
   -1.1796     9.4876    -2.307    0.990183    0.000000    0.038013   -0.436989   -0.120824     0.0000    0.0000    0.3674   154616.6782
    1.1796     9.4876    -2.307    0.990183    0.000000    0.038013   -0.436989   -0.120824     0.0000    0.0000    0.3674   154616.6783
    3.5309     8.9247    -2.622    1.064055    0.000000    0.048116   -0.602061   -0.107962     0.0000    0.0000    0.3464   125483.2681
    5.8580     8.3675    -2.642    1.123711    0.000000    0.051480   -0.809595   -0.103858     0.0000    0.0000    0.3371   99926.6244
    8.1451     7.8200    -2.569    1.175805    0.000000    0.052495   -1.057357   -0.102510     0.0000    0.0000    0.3317   77955.4631
   10.3766     7.2857    -2.465    1.221866    0.000000    0.052377   -1.346777   -0.102210     0.0000    0.0000    0.3281   59458.1568
   12.5371     6.7685    -2.354    1.262719    0.000000    0.051720   -1.680478   -0.102272     0.0000    0.0000    0.3253   44226.6587
   14.6121     6.2717    -2.253    1.298789    0.000000    0.050934   -2.061105   -0.102407     0.0000    0.0000    0.3231   31980.2319
   16.5872     5.7988    -2.173    1.330097    0.000000    0.050342   -2.490233   -0.102453     0.0000    0.0000    0.3213   22388.6953
   18.4490     5.3531    -2.128    1.356224    0.000000    0.050281   -2.967146   -0.102282     0.0000    0.0000    0.3196   15094.1925
   20.1848     4.9375    -2.134    1.376165    0.000000    0.051157   -3.486552   -0.101744     0.0000    0.0000    0.3181   9730.7132
   21.7827     4.5550    -2.210    1.388056    0.000000    0.053473   -4.035573   -0.100577     0.0000    0.0000    0.3166   5940.7465
   23.2318     4.2080    -2.388    1.388739    0.000000    0.057832   -4.588749   -0.098339     0.0000    0.0000    0.3150   3388.7021
   24.5222     3.8991    -2.706    1.373108    0.000000    0.064815   -5.100934   -0.094295     0.0000    0.0000    0.3129   1771.0349
   25.6451     3.6303    -3.204    1.333333    0.000000    0.074558   -5.498829   -0.087277     0.0000    0.0000    0.3097   823.2853
   26.5928     3.4034    -3.913    1.258560    0.000000    0.086034   -5.676669   -0.075909     0.0000    0.0000    0.3046   324.4961
   27.3589     3.2200    -4.859    1.136247    0.000000    0.096548   -5.509657   -0.059790     0.0000    0.0000    0.2970   99.5763
   27.9381     3.0813    -6.091    0.955671    0.000000    0.101954   -4.908066   -0.041929     0.0000    0.0000    0.2882   19.8914
   28.3264     2.9883    -7.639    0.712914    0.000000    0.095602   -3.942496   -0.033996     0.0000    0.0000    0.2908    1.5358
   28.5212     2.9417   -10.264    0.433835    0.000000    0.078563   -2.636686    0.004805     0.0000    0.0000    0.2359    0.0000


Main Wing Cp Coefficients
 Panel     CtrlPt.x        CtrlPt.y        CtrlPt.z       Nx      Ny       Nz        Area       Cp
Main WingCp Coefficients
Strip 1
  13       1.779e+01      -2.850e+01       9.811e-01          -0.052          -0.056          -0.997       4.178e-03         -1.3984
  14       1.770e+01      -2.850e+01       9.954e-01          -0.205          -0.099          -0.974       1.256e-02         -1.4014
  15       1.754e+01      -2.850e+01       1.014e+00          -0.052          -0.055          -0.997       1.969e-02         -1.2471
  16       1.731e+01      -2.850e+01       1.004e+00           0.111          -0.004          -0.994       2.608e-02         -0.8952
  17       1.702e+01      -2.851e+01       9.576e-01           0.198           0.026          -0.980       3.133e-02         -0.5571
  18       1.669e+01      -2.851e+01       8.951e-01           0.175           0.017          -0.984       3.419e-02         -0.3813
  19       1.634e+01      -2.851e+01       8.513e-01           0.074          -0.022          -0.997       3.473e-02         -0.2952
  20       1.599e+01      -2.851e+01       8.384e-01          -0.002          -0.054          -0.999       3.363e-02         -0.2237
  21       1.566e+01      -2.851e+01       8.477e-01          -0.057          -0.079          -0.995       3.074e-02         -0.1583
  22       1.537e+01      -2.851e+01       8.713e-01          -0.110          -0.103          -0.989       2.613e-02         -0.0738
  23       1.514e+01      -2.851e+01       9.055e-01          -0.190          -0.141          -0.972       2.015e-02          0.0811
  24       1.497e+01      -2.851e+01       9.516e-01          -0.381          -0.235          -0.894       1.360e-02          0.3404
  25       1.489e+01      -2.850e+01       1.016e+00          -0.794          -0.429          -0.431       9.346e-03         -0.0258
  26       1.489e+01      -2.850e+01       1.092e+00          -0.791          -0.396           0.466       9.243e-03         -2.0820
  27       1.497e+01      -2.850e+01       1.154e+00          -0.364          -0.162           0.917       1.347e-02         -2.5478
  28       1.514e+01      -2.850e+01       1.196e+00          -0.165          -0.059           0.985       2.001e-02         -1.3113
  29       1.537e+01      -2.850e+01       1.225e+00          -0.086          -0.019           0.996       2.601e-02         -0.8452
  30       1.566e+01      -2.849e+01       1.241e+00          -0.032           0.006           0.999       3.064e-02         -0.6777
  31       1.599e+01      -2.849e+01       1.244e+00           0.010           0.025           1.000       3.357e-02         -0.5961
  32       1.634e+01      -2.850e+01       1.234e+00           0.047           0.040           0.998       3.461e-02         -0.5632
  33       1.669e+01      -2.850e+01       1.210e+00           0.090           0.057           0.994       3.371e-02         -0.5863
  34       1.702e+01      -2.850e+01       1.172e+00           0.143           0.075           0.987       3.096e-02         -0.7069
  35       1.731e+01      -2.850e+01       1.122e+00           0.200           0.094           0.975       2.647e-02         -0.9845
  36       1.754e+01      -2.850e+01       1.069e+00           0.252           0.110           0.962       2.037e-02         -1.3589
  37       1.770e+01      -2.850e+01       1.024e+00           0.291           0.121           0.949       1.288e-02         -1.6022
  38       1.779e+01      -2.850e+01       9.921e-01           0.490           0.174           0.854       4.851e-03         -1.3941
Strip 2
  39       1.773e+01      -2.831e+01       9.729e-01          -0.052          -0.056          -0.997       1.270e-02         -0.6688
  40       1.765e+01      -2.831e+01       9.874e-01          -0.205          -0.099          -0.974       3.820e-02         -0.5539
  41       1.748e+01      -2.831e+01       1.006e+00          -0.052          -0.055          -0.997       5.986e-02         -0.4384
  42       1.724e+01      -2.831e+01       9.965e-01           0.111          -0.004          -0.994       7.929e-02         -0.3010
  43       1.695e+01      -2.831e+01       9.490e-01           0.198           0.026          -0.980       9.526e-02         -0.2121
  44       1.662e+01      -2.831e+01       8.856e-01           0.175           0.017          -0.984       1.040e-01         -0.2170
  45       1.626e+01      -2.831e+01       8.411e-01           0.074          -0.022          -0.997       1.056e-01         -0.2121
  46       1.591e+01      -2.831e+01       8.279e-01          -0.002          -0.054          -0.999       1.022e-01         -0.1495
  47       1.557e+01      -2.831e+01       8.374e-01          -0.057          -0.079          -0.995       9.347e-02         -0.0634
  48       1.528e+01      -2.831e+01       8.614e-01          -0.110          -0.103          -0.989       7.946e-02          0.0571
  49       1.504e+01      -2.831e+01       8.962e-01          -0.189          -0.141          -0.972       6.126e-02          0.2556
  50       1.487e+01      -2.831e+01       9.430e-01          -0.381          -0.235          -0.894       4.137e-02          0.5158
  51       1.479e+01      -2.831e+01       1.009e+00          -0.794          -0.429          -0.431       2.842e-02         -0.2159
  52       1.479e+01      -2.831e+01       1.085e+00          -0.791          -0.396           0.466       2.810e-02         -2.8893
  53       1.487e+01      -2.830e+01       1.149e+00          -0.365          -0.162           0.917       4.094e-02         -3.2853
  54       1.504e+01      -2.830e+01       1.192e+00          -0.165          -0.059           0.985       6.083e-02         -1.6839
  55       1.528e+01      -2.830e+01       1.220e+00          -0.086          -0.019           0.996       7.909e-02         -1.0308
  56       1.557e+01      -2.830e+01       1.237e+00          -0.032           0.006           0.999       9.316e-02         -0.7641
  57       1.591e+01      -2.830e+01       1.240e+00           0.010           0.025           1.000       1.021e-01         -0.6349
  58       1.626e+01      -2.830e+01       1.230e+00           0.047           0.040           0.998       1.052e-01         -0.5798
  59       1.662e+01      -2.830e+01       1.206e+00           0.090           0.057           0.994       1.025e-01         -0.5815
  60       1.695e+01      -2.830e+01       1.167e+00           0.143           0.075           0.987       9.414e-02         -0.6321
  61       1.724e+01      -2.830e+01       1.116e+00           0.200           0.094           0.975       8.050e-02         -0.7272
  62       1.748e+01      -2.831e+01       1.062e+00           0.252           0.110           0.962       6.193e-02         -0.8119
  63       1.765e+01      -2.831e+01       1.016e+00           0.291           0.121           0.949       3.916e-02         -0.8541
  64       1.773e+01      -2.831e+01       9.842e-01           0.490           0.174           0.854       1.475e-02         -0.5785
Strip 3
  65       1.762e+01      -2.792e+01       9.567e-01          -0.052          -0.056          -0.997       2.173e-02         -0.0852
  66       1.754e+01      -2.792e+01       9.716e-01          -0.205          -0.099          -0.974       6.536e-02          0.1025
  67       1.736e+01      -2.792e+01       9.910e-01          -0.052          -0.055          -0.997       1.024e-01          0.1699
  68       1.712e+01      -2.792e+01       9.809e-01           0.111          -0.004          -0.994       1.356e-01          0.1422
  69       1.682e+01      -2.792e+01       9.320e-01           0.199           0.026          -0.980       1.629e-01          0.0578
  70       1.647e+01      -2.792e+01       8.666e-01           0.175           0.017          -0.984       1.778e-01         -0.0536
  71       1.611e+01      -2.793e+01       8.207e-01           0.074          -0.022          -0.997       1.806e-01         -0.0900
  72       1.574e+01      -2.793e+01       8.072e-01          -0.002          -0.054          -0.999       1.749e-01         -0.0252
  73       1.539e+01      -2.793e+01       8.169e-01          -0.057          -0.079          -0.995       1.599e-01          0.0903
  74       1.509e+01      -2.793e+01       8.417e-01          -0.110          -0.103          -0.989       1.359e-01          0.2525
  75       1.485e+01      -2.792e+01       8.775e-01          -0.189          -0.141          -0.972       1.048e-01          0.4794
  76       1.468e+01      -2.792e+01       9.258e-01          -0.381          -0.235          -0.894       7.080e-02          0.6801
  77       1.459e+01      -2.792e+01       9.934e-01          -0.793          -0.429          -0.432       4.864e-02         -0.4058
  78       1.459e+01      -2.792e+01       1.072e+00          -0.792          -0.396           0.465       4.806e-02         -3.5686
  79       1.468e+01      -2.792e+01       1.138e+00          -0.365          -0.162           0.917       7.002e-02         -3.9113
  80       1.485e+01      -2.791e+01       1.182e+00          -0.165          -0.059           0.985       1.040e-01         -2.0494
  81       1.509e+01      -2.791e+01       1.212e+00          -0.086          -0.019           0.996       1.353e-01         -1.2668
  82       1.539e+01      -2.791e+01       1.229e+00          -0.032           0.006           0.999       1.594e-01         -0.9067
  83       1.574e+01      -2.791e+01       1.232e+00           0.010           0.025           1.000       1.746e-01         -0.7062
  84       1.611e+01      -2.791e+01       1.222e+00           0.047           0.040           0.998       1.800e-01         -0.5946
  85       1.647e+01      -2.791e+01       1.197e+00           0.090           0.057           0.994       1.754e-01         -0.5272
  86       1.682e+01      -2.791e+01       1.157e+00           0.143           0.075           0.987       1.611e-01         -0.4615
  87       1.712e+01      -2.792e+01       1.105e+00           0.200           0.094           0.975       1.377e-01         -0.3804
  88       1.736e+01      -2.792e+01       1.049e+00           0.252           0.110           0.962       1.060e-01         -0.2747
  89       1.754e+01      -2.792e+01       1.001e+00           0.291           0.121           0.949       6.700e-02         -0.1985
  90       1.762e+01      -2.792e+01       9.683e-01           0.490           0.174           0.854       2.524e-02          0.0832
Strip 4
  91       1.746e+01      -2.734e+01       9.324e-01          -0.052          -0.056          -0.997       3.158e-02          0.0348
  92       1.737e+01      -2.734e+01       9.481e-01          -0.205          -0.099          -0.974       9.498e-02          0.2471
  93       1.719e+01      -2.734e+01       9.683e-01          -0.052          -0.055          -0.997       1.488e-01          0.3234
  94       1.693e+01      -2.734e+01       9.578e-01           0.111          -0.004          -0.994       1.971e-01          0.2850
  95       1.662e+01      -2.734e+01       9.067e-01           0.199           0.026          -0.980       2.367e-01          0.1804
  96       1.625e+01      -2.735e+01       8.383e-01           0.175           0.017          -0.984       2.583e-01          0.0506
  97       1.587e+01      -2.735e+01       7.903e-01           0.074          -0.022          -0.997       2.624e-01          0.0081
  98       1.549e+01      -2.735e+01       7.762e-01          -0.002          -0.054          -0.999       2.542e-01          0.0796
  99       1.513e+01      -2.735e+01       7.863e-01          -0.057          -0.079          -0.995       2.323e-01          0.2068
 100       1.481e+01      -2.735e+01       8.123e-01          -0.110          -0.103          -0.989       1.976e-01          0.3738
 101       1.456e+01      -2.735e+01       8.497e-01          -0.189          -0.141          -0.972       1.523e-01          0.5864
 102       1.438e+01      -2.734e+01       9.002e-01          -0.381          -0.235          -0.894       1.029e-01          0.7112
 103       1.429e+01      -2.734e+01       9.708e-01          -0.793          -0.429          -0.432       7.070e-02         -0.6387
 104       1.429e+01      -2.734e+01       1.053e+00          -0.792          -0.396           0.464       6.980e-02         -4.0886
 105       1.438e+01      -2.734e+01       1.122e+00          -0.365          -0.162           0.917       1.017e-01         -4.3530
 106       1.456e+01      -2.734e+01       1.168e+00          -0.165          -0.059           0.985       1.512e-01         -2.3007
 107       1.481e+01      -2.733e+01       1.199e+00          -0.086          -0.019           0.996       1.966e-01         -1.4495
 108       1.513e+01      -2.733e+01       1.217e+00          -0.032           0.006           0.999       2.316e-01         -1.0505
 109       1.549e+01      -2.733e+01       1.221e+00           0.010           0.025           1.000       2.537e-01         -0.8118
 110       1.587e+01      -2.733e+01       1.210e+00           0.047           0.040           0.998       2.616e-01         -0.6613
 111       1.625e+01      -2.733e+01       1.183e+00           0.090           0.057           0.994       2.548e-01         -0.5554
 112       1.662e+01      -2.734e+01       1.142e+00           0.143           0.075           0.987       2.340e-01         -0.4507
 113       1.693e+01      -2.734e+01       1.087e+00           0.200           0.094           0.975       2.001e-01         -0.3296
 114       1.719e+01      -2.734e+01       1.029e+00           0.252           0.110           0.962       1.540e-01         -0.1875
 115       1.737e+01      -2.734e+01       9.789e-01           0.291           0.121           0.949       9.736e-02         -0.0862
 116       1.746e+01      -2.734e+01       9.445e-01           0.490           0.174           0.854       3.668e-02          0.1897
Strip 5
 117       1.724e+01      -2.658e+01       9.004e-01          -0.052          -0.056          -0.997       4.252e-02          0.0748
 118       1.714e+01      -2.658e+01       9.169e-01          -0.205          -0.099          -0.974       1.279e-01          0.2990
 119       1.696e+01      -2.658e+01       9.382e-01          -0.052          -0.055          -0.997       2.004e-01          0.3826
 120       1.668e+01      -2.658e+01       9.272e-01           0.111          -0.004          -0.994       2.653e-01          0.3462
 121       1.635e+01      -2.658e+01       8.731e-01           0.199           0.026          -0.980       3.187e-01          0.2416
 122       1.597e+01      -2.658e+01       8.009e-01           0.175           0.017          -0.984       3.478e-01          0.1133
 123       1.556e+01      -2.658e+01       7.501e-01           0.074          -0.022          -0.997       3.533e-01          0.0746
 124       1.516e+01      -2.658e+01       7.352e-01          -0.002          -0.054          -0.999       3.422e-01          0.1493
 125       1.478e+01      -2.658e+01       7.459e-01          -0.057          -0.079          -0.995       3.129e-01          0.2762
 126       1.444e+01      -2.658e+01       7.733e-01          -0.110          -0.103          -0.989       2.660e-01          0.4376
 127       1.417e+01      -2.658e+01       8.129e-01          -0.189          -0.141          -0.972       2.052e-01          0.6369
 128       1.399e+01      -2.658e+01       8.662e-01          -0.381          -0.235          -0.894       1.386e-01          0.7091
 129       1.389e+01      -2.658e+01       9.409e-01          -0.793          -0.429          -0.433       9.524e-02         -0.8159
 130       1.389e+01      -2.657e+01       1.028e+00          -0.792          -0.397           0.464       9.394e-02         -4.4506
 131       1.399e+01      -2.657e+01       1.101e+00          -0.365          -0.162           0.917       1.369e-01         -4.6516
 132       1.417e+01      -2.657e+01       1.149e+00          -0.165          -0.059           0.985       2.035e-01         -2.4651
 133       1.444e+01      -2.657e+01       1.182e+00          -0.086          -0.019           0.996       2.647e-01         -1.5701
 134       1.478e+01      -2.657e+01       1.201e+00          -0.032           0.006           0.999       3.118e-01         -1.1525
 135       1.516e+01      -2.657e+01       1.205e+00           0.010           0.025           1.000       3.416e-01         -0.8988
 136       1.556e+01      -2.657e+01       1.193e+00           0.047           0.040           0.998       3.523e-01         -0.7314
 137       1.597e+01      -2.657e+01       1.166e+00           0.090           0.057           0.994       3.432e-01         -0.6063
 138       1.635e+01      -2.657e+01       1.122e+00           0.143           0.075           0.987       3.152e-01         -0.4803
 139       1.668e+01      -2.657e+01       1.064e+00           0.200           0.094           0.975       2.695e-01         -0.3372
 140       1.696e+01      -2.657e+01       1.002e+00           0.252           0.110           0.962       2.074e-01         -0.1768
 141       1.714e+01      -2.658e+01       9.494e-01           0.291           0.121           0.949       1.311e-01         -0.0622
 142       1.724e+01      -2.658e+01       9.132e-01           0.490           0.174           0.854       4.941e-02          0.2122
Strip 6
 143       1.697e+01      -2.563e+01       8.607e-01          -0.052          -0.056          -0.997       5.480e-02          0.0922
 144       1.687e+01      -2.563e+01       8.783e-01          -0.205          -0.099          -0.974       1.649e-01          0.3231
 145       1.667e+01      -2.563e+01       9.011e-01          -0.052          -0.055          -0.997       2.582e-01          0.4114
 146       1.638e+01      -2.563e+01       8.893e-01           0.111          -0.004          -0.994       3.419e-01          0.3778
 147       1.602e+01      -2.563e+01       8.316e-01           0.199           0.026          -0.980       4.106e-01          0.2759
 148       1.562e+01      -2.563e+01       7.545e-01           0.175           0.017          -0.984       4.481e-01          0.1512
 149       1.518e+01      -2.563e+01       7.004e-01           0.074          -0.022          -0.997       4.553e-01          0.1155
 150       1.475e+01      -2.563e+01       6.845e-01          -0.002          -0.054          -0.999       4.410e-01          0.1905
 151       1.435e+01      -2.563e+01       6.960e-01          -0.057          -0.079          -0.995       4.033e-01          0.3149
 152       1.399e+01      -2.563e+01       7.252e-01          -0.110          -0.103          -0.989       3.429e-01          0.4716
 153       1.370e+01      -2.563e+01       7.674e-01          -0.189          -0.141          -0.972       2.645e-01          0.6625
 154       1.350e+01      -2.563e+01       8.243e-01          -0.380          -0.235          -0.895       1.787e-01          0.7029
 155       1.340e+01      -2.563e+01       9.039e-01          -0.792          -0.429          -0.434       1.228e-01         -0.9240
 156       1.340e+01      -2.563e+01       9.971e-01          -0.793          -0.397           0.463       1.210e-01         -4.6691
 157       1.350e+01      -2.562e+01       1.074e+00          -0.365          -0.162           0.917       1.763e-01         -4.8312
 158       1.370e+01      -2.562e+01       1.126e+00          -0.165          -0.059           0.984       2.622e-01         -2.5623
 159       1.399e+01      -2.562e+01       1.161e+00          -0.086          -0.019           0.996       3.410e-01         -1.6412
 160       1.435e+01      -2.562e+01       1.182e+00          -0.032           0.006           0.999       4.018e-01         -1.2139
 161       1.475e+01      -2.562e+01       1.186e+00           0.010           0.025           1.000       4.403e-01         -0.9539
 162       1.518e+01      -2.562e+01       1.173e+00           0.047           0.040           0.998       4.540e-01         -0.7796
 163       1.562e+01      -2.562e+01       1.144e+00           0.090           0.057           0.994       4.423e-01         -0.6455
 164       1.602e+01      -2.562e+01       1.097e+00           0.143           0.075           0.987       4.063e-01         -0.5080
 165       1.638e+01      -2.563e+01       1.035e+00           0.200           0.094           0.975       3.474e-01         -0.3522
 166       1.667e+01      -2.563e+01       9.692e-01           0.252           0.110           0.962       2.673e-01         -0.1810
 167       1.687e+01      -2.563e+01       9.130e-01           0.291           0.121           0.949       1.690e-01         -0.0582
 168       1.697e+01      -2.563e+01       8.743e-01           0.490           0.174           0.854       6.370e-02          0.2163
Strip 7
 169       1.665e+01      -2.451e+01       8.137e-01          -0.052          -0.056          -0.997       6.861e-02          0.1011
 170       1.654e+01      -2.451e+01       8.326e-01          -0.205          -0.099          -0.974       2.064e-01          0.3357
 171       1.633e+01      -2.451e+01       8.571e-01          -0.052          -0.055          -0.997       3.233e-01          0.4268
 172       1.602e+01      -2.451e+01       8.444e-01           0.111          -0.004          -0.994       4.279e-01          0.3952
 173       1.563e+01      -2.451e+01       7.825e-01           0.199           0.026          -0.980       5.139e-01          0.2952
 174       1.520e+01      -2.451e+01       6.996e-01           0.175           0.017          -0.984       5.609e-01          0.1726
 175       1.473e+01      -2.451e+01       6.415e-01           0.074          -0.022          -0.997       5.699e-01          0.1383
 176       1.427e+01      -2.451e+01       6.244e-01          -0.002          -0.054          -0.999       5.521e-01          0.2127
 177       1.383e+01      -2.451e+01       6.367e-01          -0.057          -0.079          -0.995       5.048e-01          0.3351
 178       1.345e+01      -2.451e+01       6.681e-01          -0.110          -0.103          -0.989       4.293e-01          0.4886
 179       1.314e+01      -2.451e+01       7.135e-01          -0.189          -0.141          -0.972       3.311e-01          0.6749
 180       1.292e+01      -2.451e+01       7.746e-01          -0.380          -0.235          -0.895       2.239e-01          0.7005
 181       1.281e+01      -2.451e+01       8.601e-01          -0.792          -0.429          -0.435       1.538e-01         -0.9693
 182       1.281e+01      -2.450e+01       9.602e-01          -0.793          -0.397           0.462       1.514e-01         -4.7678
 183       1.292e+01      -2.450e+01       1.043e+00          -0.365          -0.162           0.917       2.206e-01         -4.9154
 184       1.314e+01      -2.450e+01       1.099e+00          -0.165          -0.059           0.984       3.281e-01         -2.6090
 185       1.345e+01      -2.450e+01       1.137e+00          -0.086          -0.019           0.996       4.269e-01         -1.6768
 186       1.383e+01      -2.450e+01       1.158e+00          -0.032           0.006           0.999       5.030e-01         -1.2456
 187       1.427e+01      -2.450e+01       1.163e+00           0.010           0.025           1.000       5.512e-01         -0.9834
 188       1.473e+01      -2.450e+01       1.149e+00           0.047           0.040           0.998       5.684e-01         -0.8066
 189       1.520e+01      -2.450e+01       1.118e+00           0.090           0.057           0.994       5.537e-01         -0.6687
 190       1.563e+01      -2.450e+01       1.067e+00           0.143           0.075           0.987       5.086e-01         -0.5253
 191       1.602e+01      -2.450e+01       1.001e+00           0.200           0.094           0.975       4.350e-01         -0.3628
 192       1.633e+01      -2.450e+01       9.302e-01           0.252           0.110           0.962       3.347e-01         -0.1859
 193       1.654e+01      -2.451e+01       8.699e-01           0.291           0.121           0.949       2.116e-01         -0.0581
 194       1.665e+01      -2.451e+01       8.283e-01           0.489           0.174           0.855       7.977e-02          0.2167
Strip 8
 195       1.629e+01      -2.322e+01       7.596e-01          -0.052          -0.056          -0.997       8.405e-02          0.1059
 196       1.617e+01      -2.322e+01       7.801e-01          -0.205          -0.099          -0.974       2.529e-01          0.3427
 197       1.593e+01      -2.322e+01       8.065e-01          -0.052          -0.055          -0.997       3.961e-01          0.4353
 198       1.560e+01      -2.322e+01       7.928e-01           0.111          -0.004          -0.994       5.242e-01          0.4048
 199       1.519e+01      -2.322e+01       7.260e-01           0.199           0.026          -0.980       6.295e-01          0.3057
 200       1.471e+01      -2.322e+01       6.366e-01           0.175           0.017          -0.984       6.870e-01          0.1837
 201       1.422e+01      -2.322e+01       5.739e-01           0.074          -0.022          -0.997       6.982e-01          0.1494
 202       1.372e+01      -2.322e+01       5.554e-01          -0.002          -0.054          -0.999       6.764e-01          0.2229
 203       1.324e+01      -2.322e+01       5.687e-01          -0.057          -0.079          -0.995       6.185e-01          0.3437
 204       1.283e+01      -2.322e+01       6.026e-01          -0.110          -0.103          -0.989       5.261e-01          0.4952
 205       1.250e+01      -2.322e+01       6.515e-01          -0.189          -0.141          -0.972       4.058e-01          0.6794
 206       1.226e+01      -2.322e+01       7.174e-01          -0.380          -0.235          -0.895       2.744e-01          0.7035
 207       1.214e+01      -2.322e+01       8.098e-01          -0.791          -0.428          -0.436       1.885e-01         -0.9643
 208       1.214e+01      -2.321e+01       9.178e-01          -0.794          -0.397           0.461       1.854e-01         -4.7731
 209       1.226e+01      -2.321e+01       1.007e+00          -0.366          -0.162           0.917       2.702e-01         -4.9266
 210       1.250e+01      -2.321e+01       1.068e+00          -0.165          -0.059           0.984       4.019e-01         -2.6183
 211       1.283e+01      -2.321e+01       1.108e+00          -0.086          -0.019           0.996       5.229e-01         -1.6869
 212       1.324e+01      -2.321e+01       1.132e+00          -0.032           0.006           0.999       6.161e-01         -1.2568
 213       1.372e+01      -2.321e+01       1.136e+00           0.010           0.025           1.000       6.752e-01         -0.9955
 214       1.422e+01      -2.321e+01       1.122e+00           0.047           0.040           0.998       6.963e-01         -0.8185
 215       1.471e+01      -2.321e+01       1.088e+00           0.090           0.057           0.994       6.784e-01         -0.6794
 216       1.519e+01      -2.321e+01       1.033e+00           0.143           0.075           0.987       6.232e-01         -0.5337
 217       1.560e+01      -2.321e+01       9.619e-01           0.200           0.094           0.975       5.330e-01         -0.3681
 218       1.593e+01      -2.322e+01       8.854e-01           0.251           0.110           0.962       4.101e-01         -0.1885
 219       1.617e+01      -2.322e+01       8.204e-01           0.291           0.121           0.949       2.593e-01         -0.0583
 220       1.629e+01      -2.322e+01       7.755e-01           0.489           0.174           0.855       9.776e-02          0.2164
Strip 9
 221       1.588e+01      -2.177e+01       6.990e-01          -0.052          -0.056          -0.997       1.012e-01          0.1084
 222       1.575e+01      -2.177e+01       7.211e-01          -0.205          -0.099          -0.974       3.046e-01          0.3465
 223       1.549e+01      -2.177e+01       7.497e-01          -0.052          -0.055          -0.997       4.769e-01          0.4401
 224       1.513e+01      -2.177e+01       7.349e-01           0.111          -0.004          -0.994       6.311e-01          0.4101
 225       1.468e+01      -2.177e+01       6.625e-01           0.199           0.026          -0.980       7.578e-01          0.3109
 226       1.417e+01      -2.177e+01       5.658e-01           0.175           0.017          -0.984       8.270e-01          0.1884
 227       1.363e+01      -2.177e+01       4.978e-01           0.074          -0.022          -0.997       8.405e-01          0.1532
 228       1.309e+01      -2.177e+01       4.778e-01          -0.002          -0.054          -0.999       8.143e-01          0.2256
 229       1.258e+01      -2.177e+01       4.922e-01          -0.057          -0.079          -0.995       7.447e-01          0.3450
 230       1.213e+01      -2.177e+01       5.289e-01          -0.109          -0.103          -0.989       6.334e-01          0.4949
 231       1.177e+01      -2.177e+01       5.819e-01          -0.189          -0.141          -0.972       4.887e-01          0.6786
 232       1.152e+01      -2.177e+01       6.533e-01          -0.380          -0.234          -0.895       3.305e-01          0.7107
 233       1.139e+01      -2.177e+01       7.533e-01          -0.791          -0.428          -0.437       2.271e-01         -0.9216
 234       1.139e+01      -2.177e+01       8.701e-01          -0.794          -0.398           0.460       2.231e-01         -4.7080
 235       1.152e+01      -2.177e+01       9.671e-01          -0.366          -0.162           0.916       3.251e-01         -4.8832
 236       1.177e+01      -2.176e+01       1.032e+00          -0.165          -0.059           0.984       4.838e-01         -2.6006
 237       1.213e+01      -2.176e+01       1.076e+00          -0.086          -0.019           0.996       6.295e-01         -1.6795
 238       1.258e+01      -2.176e+01       1.102e+00          -0.032           0.006           0.999       7.418e-01         -1.2543
 239       1.309e+01      -2.176e+01       1.107e+00           0.010           0.025           1.000       8.130e-01         -0.9957
 240       1.363e+01      -2.176e+01       1.091e+00           0.047           0.040           0.998       8.384e-01         -0.8205
 241       1.417e+01      -2.176e+01       1.054e+00           0.090           0.057           0.994       8.169e-01         -0.6819
 242       1.468e+01      -2.176e+01       9.952e-01           0.143           0.075           0.987       7.504e-01         -0.5358
 243       1.513e+01      -2.177e+01       9.179e-01           0.200           0.094           0.975       6.418e-01         -0.3694
 244       1.549e+01      -2.177e+01       8.351e-01           0.251           0.110           0.962       4.939e-01         -0.1891
 245       1.575e+01      -2.177e+01       7.647e-01           0.291           0.121           0.949       3.123e-01         -0.0581
 246       1.588e+01      -2.177e+01       7.161e-01           0.489           0.174           0.855       1.177e-01          0.2160
Strip 10
 247       1.542e+01      -2.017e+01       6.321e-01          -0.052          -0.056          -0.997       1.200e-01          0.1096
 248       1.528e+01      -2.017e+01       6.561e-01          -0.205          -0.099          -0.974       3.613e-01          0.3487
 249       1.501e+01      -2.017e+01       6.871e-01          -0.052          -0.055          -0.997       5.656e-01          0.4427
 250       1.462e+01      -2.017e+01       6.710e-01           0.111          -0.004          -0.994       7.484e-01          0.4127
 251       1.413e+01      -2.017e+01       5.926e-01           0.199           0.026          -0.980       8.985e-01          0.3131
 252       1.358e+01      -2.018e+01       4.877e-01           0.175           0.017          -0.984       9.806e-01          0.1892
 253       1.299e+01      -2.018e+01       4.140e-01           0.074          -0.022          -0.997       9.967e-01          0.1523
 254       1.240e+01      -2.018e+01       3.923e-01          -0.002          -0.054          -0.999       9.658e-01          0.2233
 255       1.185e+01      -2.018e+01       4.079e-01          -0.057          -0.079          -0.995       8.833e-01          0.3413
 256       1.137e+01      -2.018e+01       4.477e-01          -0.109          -0.103          -0.989       7.513e-01          0.4899
 257       1.097e+01      -2.017e+01       5.052e-01          -0.189          -0.141          -0.972       5.797e-01          0.6740
 258       1.070e+01      -2.017e+01       5.826e-01          -0.380          -0.234          -0.895       3.922e-01          0.7209
 259       1.056e+01      -2.017e+01       6.909e-01          -0.791          -0.428          -0.438       2.695e-01         -0.8517
 260       1.056e+01      -2.017e+01       8.176e-01          -0.794          -0.398           0.459       2.644e-01         -4.5905
 261       1.070e+01      -2.017e+01       9.228e-01          -0.366          -0.162           0.916       3.854e-01         -4.7994
 262       1.097e+01      -2.017e+01       9.935e-01          -0.166          -0.059           0.984       5.736e-01         -2.5634
 263       1.137e+01      -2.017e+01       1.041e+00          -0.086          -0.019           0.996       7.465e-01         -1.6593
 264       1.185e+01      -2.017e+01       1.069e+00          -0.032           0.006           0.999       8.797e-01         -1.2419
 265       1.240e+01      -2.017e+01       1.074e+00           0.010           0.025           1.000       9.642e-01         -0.9881
 266       1.299e+01      -2.017e+01       1.057e+00           0.047           0.040           0.998       9.944e-01         -0.8158
 267       1.358e+01      -2.017e+01       1.017e+00           0.090           0.057           0.994       9.689e-01         -0.6790
 268       1.413e+01      -2.017e+01       9.532e-01           0.143           0.075           0.987       8.901e-01         -0.5339
 269       1.462e+01      -2.017e+01       8.695e-01           0.200           0.094           0.975       7.613e-01         -0.3681
 270       1.501e+01      -2.017e+01       7.797e-01           0.251           0.110           0.962       5.858e-01         -0.1882
 271       1.528e+01      -2.017e+01       7.033e-01           0.291           0.121           0.949       3.705e-01         -0.0574
 272       1.542e+01      -2.017e+01       6.507e-01           0.489           0.174           0.855       1.397e-01          0.2156
Strip 11
 273       1.493e+01      -1.844e+01       5.594e-01          -0.052          -0.056          -0.997       1.404e-01          0.1101
 274       1.478e+01      -1.844e+01       5.854e-01          -0.205          -0.099          -0.974       4.227e-01          0.3498
 275       1.448e+01      -1.844e+01       6.190e-01          -0.052          -0.055          -0.997       6.618e-01          0.4442
 276       1.406e+01      -1.844e+01       6.016e-01           0.111          -0.004          -0.994       8.755e-01          0.4140
 277       1.353e+01      -1.844e+01       5.166e-01           0.199           0.026          -0.980       1.051e+00          0.3133
 278       1.293e+01      -1.844e+01       4.028e-01           0.175           0.017          -0.984       1.147e+00          0.1873
 279       1.229e+01      -1.844e+01       3.230e-01           0.074          -0.022          -0.997       1.166e+00          0.1482
 280       1.166e+01      -1.844e+01       2.995e-01          -0.002          -0.054          -0.999       1.130e+00          0.2175
 281       1.106e+01      -1.844e+01       3.164e-01          -0.057          -0.079          -0.995       1.034e+00          0.3340
 282       1.053e+01      -1.844e+01       3.595e-01          -0.109          -0.103          -0.989       8.792e-01          0.4814
 283       1.011e+01      -1.844e+01       4.218e-01          -0.189          -0.141          -0.972       6.784e-01          0.6665
 284       9.810e+00      -1.844e+01       5.057e-01          -0.379          -0.234          -0.895       4.590e-01          0.7326
 285       9.657e+00      -1.844e+01       6.232e-01          -0.790          -0.428          -0.439       3.154e-01         -0.7620
 286       9.657e+00      -1.844e+01       7.606e-01          -0.795          -0.398           0.458       3.093e-01         -4.4338
 287       9.810e+00      -1.843e+01       8.746e-01          -0.366          -0.162           0.916       4.507e-01         -4.6848
 288       1.011e+01      -1.843e+01       9.513e-01          -0.166          -0.059           0.984       6.710e-01         -2.5109
 289       1.053e+01      -1.843e+01       1.003e+00          -0.086          -0.019           0.996       8.733e-01         -1.6295
 290       1.106e+01      -1.843e+01       1.033e+00          -0.032           0.006           0.999       1.029e+00         -1.2227
 291       1.166e+01      -1.843e+01       1.039e+00           0.010           0.025           1.000       1.128e+00         -0.9749
 292       1.229e+01      -1.843e+01       1.021e+00           0.047           0.040           0.998       1.163e+00         -0.8065
 293       1.293e+01      -1.843e+01       9.771e-01           0.090           0.057           0.994       1.134e+00         -0.6724
 294       1.353e+01      -1.843e+01       9.076e-01           0.143           0.075           0.987       1.042e+00         -0.5292
 295       1.406e+01      -1.843e+01       8.168e-01           0.200           0.094           0.975       8.909e-01         -0.3649
 296       1.448e+01      -1.844e+01       7.195e-01           0.251           0.110           0.962       6.856e-01         -0.1863
 297       1.478e+01      -1.844e+01       6.367e-01           0.290           0.121           0.949       4.335e-01         -0.0565
 298       1.493e+01      -1.844e+01       5.796e-01           0.489           0.174           0.855       1.635e-01          0.2153
Strip 12
 299       1.440e+01      -1.658e+01       4.815e-01          -0.052          -0.056          -0.997       1.623e-01          0.1100
 300       1.424e+01      -1.658e+01       5.097e-01          -0.204          -0.099          -0.974       4.885e-01          0.3503
 301       1.392e+01      -1.658e+01       5.461e-01          -0.052          -0.055          -0.997       7.646e-01          0.4449
 302       1.345e+01      -1.658e+01       5.272e-01           0.111          -0.004          -0.994       1.011e+00          0.4143
 303       1.288e+01      -1.658e+01       4.351e-01           0.199           0.026          -0.980       1.214e+00          0.3122
 304       1.224e+01      -1.658e+01       3.118e-01           0.175           0.017          -0.984       1.325e+00          0.1836
 305       1.155e+01      -1.658e+01       2.253e-01           0.074          -0.022          -0.997       1.347e+00          0.1418
 306       1.086e+01      -1.658e+01       1.998e-01          -0.002          -0.054          -0.999       1.305e+00          0.2092
 307       1.021e+01      -1.658e+01       2.182e-01          -0.057          -0.079          -0.995       1.194e+00          0.3239
 308       9.638e+00      -1.658e+01       2.649e-01          -0.109          -0.103          -0.989       1.016e+00          0.4700
 309       9.178e+00      -1.658e+01       3.324e-01          -0.189          -0.141          -0.972       7.839e-01          0.6561
 310       8.855e+00      -1.658e+01       4.233e-01          -0.379          -0.234          -0.895       5.305e-01          0.7447
 311       8.689e+00      -1.658e+01       5.506e-01          -0.790          -0.428          -0.439       3.646e-01         -0.6580
 312       8.689e+00      -1.658e+01       6.994e-01          -0.795          -0.398           0.457       3.572e-01         -4.2454
 313       8.855e+00      -1.657e+01       8.230e-01          -0.366          -0.162           0.916       5.205e-01         -4.5445
 314       9.178e+00      -1.657e+01       9.060e-01          -0.166          -0.059           0.984       7.751e-01         -2.4466
 315       9.638e+00      -1.657e+01       9.619e-01          -0.086          -0.019           0.996       1.009e+00         -1.5925
 316       1.021e+01      -1.657e+01       9.944e-01          -0.032           0.006           0.999       1.189e+00         -1.1980
 317       1.086e+01      -1.657e+01       1.001e+00           0.010           0.025           1.000       1.303e+00         -0.9574
 318       1.155e+01      -1.657e+01       9.810e-01           0.047           0.040           0.998       1.344e+00         -0.7939
 319       1.224e+01      -1.657e+01       9.339e-01           0.090           0.057           0.994       1.310e+00         -0.6631
 320       1.288e+01      -1.657e+01       8.586e-01           0.143           0.075           0.987       1.203e+00         -0.5225
 321       1.345e+01      -1.657e+01       7.603e-01           0.200           0.094           0.975       1.029e+00         -0.3604
 322       1.392e+01      -1.658e+01       6.549e-01           0.251           0.110           0.962       7.922e-01         -0.1837
 323       1.424e+01      -1.658e+01       5.652e-01           0.290           0.121           0.949       5.010e-01         -0.0555
 324       1.440e+01      -1.658e+01       5.033e-01           0.489           0.174           0.855       1.889e-01          0.2148
Strip 13
 325       1.384e+01      -1.460e+01       3.988e-01          -0.052          -0.056          -0.997       1.852e-01          0.1095
 326       1.366e+01      -1.460e+01       4.293e-01          -0.204          -0.099          -0.974       5.577e-01          0.3505
 327       1.331e+01      -1.460e+01       4.686e-01          -0.052          -0.055          -0.997       8.729e-01          0.4451
 328       1.282e+01      -1.460e+01       4.482e-01           0.111          -0.004          -0.994       1.155e+00          0.4141
 329       1.220e+01      -1.460e+01       3.486e-01           0.199           0.026          -0.980       1.386e+00          0.3103
 330       1.150e+01      -1.461e+01       2.153e-01           0.175           0.017          -0.984       1.513e+00          0.1786
 331       1.075e+01      -1.461e+01       1.218e-01           0.074          -0.022          -0.997       1.538e+00          0.1336
 332       1.001e+01      -1.461e+01       9.417e-02          -0.002          -0.054          -0.999       1.490e+00          0.1986
 333       9.307e+00      -1.461e+01       1.140e-01          -0.057          -0.079          -0.995       1.363e+00          0.3115
 334       8.689e+00      -1.461e+01       1.646e-01          -0.109          -0.103          -0.989       1.160e+00          0.4560
 335       8.191e+00      -1.460e+01       2.375e-01          -0.189          -0.141          -0.972       8.951e-01          0.6431
 336       7.843e+00      -1.460e+01       3.359e-01          -0.379          -0.234          -0.895       6.059e-01          0.7562
 337       7.663e+00      -1.460e+01       4.735e-01          -0.790          -0.428          -0.440       4.163e-01         -0.5427
 338       7.663e+00      -1.460e+01       6.345e-01          -0.795          -0.399           0.457       4.076e-01         -4.0307
 339       7.843e+00      -1.460e+01       7.681e-01          -0.366          -0.163           0.916       5.941e-01         -4.3829
 340       8.191e+00      -1.460e+01       8.579e-01          -0.166          -0.059           0.984       8.847e-01         -2.3720
 341       8.689e+00      -1.460e+01       9.185e-01          -0.086          -0.019           0.996       1.152e+00         -1.5491
 342       9.307e+00      -1.460e+01       9.536e-01          -0.032           0.006           0.999       1.357e+00         -1.1688
 343       1.001e+01      -1.460e+01       9.607e-01           0.010           0.025           1.000       1.488e+00         -0.9366
 344       1.075e+01      -1.460e+01       9.391e-01           0.047           0.040           0.998       1.535e+00         -0.7786
 345       1.150e+01      -1.460e+01       8.882e-01           0.090           0.057           0.994       1.495e+00         -0.6518
 346       1.220e+01      -1.460e+01       8.067e-01           0.143           0.075           0.987       1.374e+00         -0.5143
 347       1.282e+01      -1.460e+01       7.004e-01           0.200           0.094           0.975       1.175e+00         -0.3549
 348       1.331e+01      -1.460e+01       5.863e-01           0.251           0.110           0.962       9.045e-01         -0.1806
 349       1.366e+01      -1.460e+01       4.893e-01           0.290           0.121           0.949       5.720e-01         -0.0543
 350       1.384e+01      -1.460e+01       4.224e-01           0.488           0.174           0.855       2.157e-01          0.2142
Strip 14
 351       1.325e+01      -1.253e+01       3.119e-01          -0.052          -0.056          -0.997       2.091e-01          0.1088
 352       1.306e+01      -1.253e+01       3.448e-01          -0.204          -0.099          -0.974       6.295e-01          0.3504
 353       1.268e+01      -1.253e+01       3.873e-01          -0.052          -0.055          -0.997       9.852e-01          0.4452
 354       1.215e+01      -1.253e+01       3.653e-01           0.111          -0.004          -0.994       1.303e+00          0.4135
 355       1.148e+01      -1.253e+01       2.577e-01           0.199           0.026          -0.980       1.564e+00          0.3078
 356       1.072e+01      -1.253e+01       1.139e-01           0.175           0.017          -0.984       1.707e+00          0.1724
 357       9.920e+00      -1.253e+01       1.292e-02           0.074          -0.022          -0.997       1.735e+00          0.1237
 358       9.116e+00      -1.253e+01      -1.685e-02          -0.002          -0.054          -0.999       1.682e+00          0.1861
 359       8.359e+00      -1.253e+01       4.567e-03          -0.057          -0.079          -0.995       1.539e+00          0.2969
 360       7.692e+00      -1.253e+01       5.912e-02          -0.109          -0.103          -0.989       1.309e+00          0.4394
 361       7.155e+00      -1.253e+01       1.379e-01          -0.189          -0.141          -0.972       1.010e+00          0.6272
 362       6.779e+00      -1.253e+01       2.440e-01          -0.379          -0.234          -0.895       6.840e-01          0.7661
 363       6.585e+00      -1.253e+01       3.926e-01          -0.789          -0.428          -0.441       4.701e-01         -0.4180
 364       6.585e+00      -1.253e+01       5.664e-01          -0.796          -0.399           0.456       4.599e-01         -3.7914
 365       6.779e+00      -1.253e+01       7.106e-01          -0.366          -0.163           0.916       6.703e-01         -4.2005
 366       7.155e+00      -1.253e+01       8.075e-01          -0.166          -0.059           0.984       9.984e-01         -2.2872
 367       7.692e+00      -1.253e+01       8.728e-01          -0.086          -0.019           0.996       1.300e+00         -1.4997
 368       8.359e+00      -1.253e+01       9.107e-01          -0.032           0.006           0.999       1.532e+00         -1.1355
 369       9.116e+00      -1.253e+01       9.183e-01           0.010           0.025           1.000       1.679e+00         -0.9128
 370       9.920e+00      -1.253e+01       8.951e-01           0.047           0.040           0.998       1.732e+00         -0.7610
 371       1.072e+01      -1.253e+01       8.401e-01           0.090           0.057           0.994       1.688e+00         -0.6388
 372       1.148e+01      -1.253e+01       7.522e-01           0.143           0.075           0.987       1.551e+00         -0.5050
 373       1.215e+01      -1.253e+01       6.374e-01           0.200           0.094           0.975       1.327e+00         -0.3487
 374       1.268e+01      -1.253e+01       5.143e-01           0.251           0.110           0.962       1.021e+00         -0.1772
 375       1.306e+01      -1.253e+01       4.096e-01           0.290           0.121           0.949       6.457e-01         -0.0532
 376       1.325e+01      -1.253e+01       3.374e-01           0.488           0.174           0.855       2.435e-01          0.2133
Strip 15
 377       1.264e+01      -1.037e+01       2.215e-01          -0.052          -0.056          -0.997       2.334e-01          0.1075
 378       1.243e+01      -1.037e+01       2.569e-01          -0.204          -0.099          -0.974       7.027e-01          0.3502
 379       1.203e+01      -1.037e+01       3.026e-01          -0.052          -0.055          -0.997       1.100e+00          0.4450
 380       1.145e+01      -1.037e+01       2.789e-01           0.111          -0.004          -0.994       1.454e+00          0.4127
 381       1.073e+01      -1.037e+01       1.631e-01           0.199           0.026          -0.980       1.746e+00          0.3047
 382       9.918e+00      -1.037e+01       8.271e-03           0.175           0.017          -0.984       1.905e+00          0.1652
 383       9.052e+00      -1.037e+01      -1.004e-01           0.074          -0.022          -0.997       1.937e+00          0.1123
 384       8.187e+00      -1.037e+01      -1.324e-01          -0.002          -0.054          -0.999       1.878e+00          0.1718
 385       7.372e+00      -1.037e+01      -1.094e-01          -0.057          -0.079          -0.995       1.718e+00          0.2800
 386       6.654e+00      -1.037e+01      -5.067e-02          -0.109          -0.103          -0.989       1.461e+00          0.4201
 387       6.076e+00      -1.037e+01       3.412e-02          -0.189          -0.141          -0.972       1.128e+00          0.6078
 388       5.671e+00      -1.037e+01       1.484e-01          -0.379          -0.234          -0.895       7.637e-01          0.7735
 389       5.463e+00      -1.037e+01       3.083e-01          -0.789          -0.427          -0.441       5.248e-01         -0.2843
 390       5.463e+00      -1.037e+01       4.954e-01          -0.796          -0.399           0.456       5.132e-01         -3.5256
 391       5.671e+00      -1.037e+01       6.506e-01          -0.367          -0.163           0.916       7.479e-01         -3.9952
 392       6.076e+00      -1.037e+01       7.549e-01          -0.166          -0.059           0.984       1.114e+00         -2.1917
 393       6.654e+00      -1.037e+01       8.252e-01          -0.086          -0.019           0.996       1.451e+00         -1.4440
 394       7.372e+00      -1.037e+01       8.661e-01          -0.032           0.006           0.999       1.710e+00         -1.0981
 395       8.187e+00      -1.037e+01       8.743e-01           0.010           0.025           1.000       1.874e+00         -0.8863
 396       9.052e+00      -1.037e+01       8.492e-01           0.047           0.040           0.998       1.933e+00         -0.7417
 397       9.918e+00      -1.037e+01       7.901e-01           0.090           0.057           0.994       1.884e+00         -0.6247
 398       1.073e+01      -1.037e+01       6.954e-01           0.143           0.075           0.987       1.731e+00         -0.4950
 399       1.145e+01      -1.037e+01       5.719e-01           0.200           0.094           0.975       1.481e+00         -0.3422
 400       1.203e+01      -1.037e+01       4.393e-01           0.251           0.110           0.962       1.140e+00         -0.1737
 401       1.243e+01      -1.037e+01       3.267e-01           0.290           0.121           0.949       7.208e-01         -0.0522
 402       1.264e+01      -1.037e+01       2.489e-01           0.488           0.174           0.855       2.718e-01          0.2119
Strip 16
 403       1.201e+01      -8.140e+00       1.281e-01          -0.052          -0.056          -0.997       2.577e-01          0.1060
 404       1.178e+01      -8.140e+00       1.661e-01          -0.204          -0.099          -0.974       7.760e-01          0.3498
 405       1.135e+01      -8.140e+00       2.152e-01          -0.052          -0.055          -0.997       1.214e+00          0.4448
 406       1.073e+01      -8.140e+00       1.897e-01           0.111          -0.004          -0.994       1.606e+00          0.4117
 407       9.960e+00      -8.141e+00       6.545e-02           0.199           0.026          -0.980       1.927e+00          0.3012
 408       9.085e+00      -8.141e+00      -1.008e-01           0.175           0.017          -0.984       2.104e+00          0.1570
 409       8.156e+00      -8.142e+00      -2.174e-01           0.074          -0.022          -0.997       2.139e+00          0.0993
 410       7.227e+00      -8.142e+00      -2.518e-01          -0.002          -0.054          -0.999       2.073e+00          0.1555
 411       6.352e+00      -8.142e+00      -2.271e-01          -0.057          -0.079          -0.995       1.897e+00          0.2606
 412       5.582e+00      -8.141e+00      -1.641e-01          -0.109          -0.103          -0.989       1.614e+00          0.3976
 413       4.962e+00      -8.141e+00      -7.305e-02          -0.189          -0.141          -0.972       1.246e+00          0.5843
 414       4.527e+00      -8.141e+00       4.957e-02          -0.379          -0.234          -0.895       8.436e-01          0.7772
 415       4.303e+00      -8.140e+00       2.213e-01          -0.789          -0.427          -0.442       5.797e-01         -0.1402
 416       4.303e+00      -8.139e+00       4.220e-01          -0.796          -0.399           0.455       5.665e-01         -3.2273
 417       4.527e+00      -8.138e+00       5.887e-01          -0.367          -0.163           0.916       8.257e-01         -3.7610
 418       4.962e+00      -8.138e+00       7.007e-01          -0.166          -0.059           0.984       1.230e+00         -2.0823
 419       5.582e+00      -8.138e+00       7.761e-01          -0.086          -0.019           0.996       1.602e+00         -1.3806
 420       6.352e+00      -8.138e+00       8.199e-01          -0.032           0.006           0.999       1.888e+00         -1.0562
 421       7.227e+00      -8.138e+00       8.288e-01           0.010           0.025           1.000       2.070e+00         -0.8572
 422       8.156e+00      -8.138e+00       8.019e-01           0.047           0.040           0.998       2.135e+00         -0.7211
 423       9.085e+00      -8.138e+00       7.384e-01           0.090           0.057           0.994       2.081e+00         -0.6101
 424       9.960e+00      -8.138e+00       6.368e-01           0.143           0.075           0.987       1.912e+00         -0.4850
 425       1.073e+01      -8.139e+00       5.041e-01           0.200           0.094           0.975       1.635e+00         -0.3359
 426       1.135e+01      -8.139e+00       3.619e-01           0.251           0.110           0.962       1.259e+00         -0.1706
 427       1.178e+01      -8.140e+00       2.410e-01           0.290           0.121           0.949       7.960e-01         -0.0518
 428       1.201e+01      -8.140e+00       1.575e-01           0.488           0.174           0.855       3.002e-01          0.2099
Strip 17
 429       1.136e+01      -5.855e+00       3.231e-02          -0.052          -0.056          -0.997       2.816e-01          0.1038
 430       1.112e+01      -5.854e+00       7.299e-02          -0.204          -0.099          -0.974       8.480e-01          0.3491
 431       1.066e+01      -5.854e+00       1.255e-01          -0.052          -0.055          -0.997       1.327e+00          0.4446
 432       9.991e+00      -5.854e+00       9.826e-02           0.111          -0.004          -0.994       1.755e+00          0.4106
 433       9.167e+00      -5.855e+00      -3.469e-02           0.199           0.026          -0.980       2.106e+00          0.2973
 434       8.231e+00      -5.855e+00      -2.126e-01           0.175           0.017          -0.984       2.298e+00          0.1478
 435       7.237e+00      -5.856e+00      -3.374e-01           0.074          -0.022          -0.997       2.337e+00          0.0850
 436       6.244e+00      -5.856e+00      -3.742e-01          -0.002          -0.054          -0.999       2.265e+00          0.1375
 437       5.307e+00      -5.856e+00      -3.477e-01          -0.057          -0.079          -0.995       2.073e+00          0.2390
 438       4.484e+00      -5.855e+00      -2.803e-01          -0.109          -0.103          -0.989       1.764e+00          0.3717
 439       3.820e+00      -5.855e+00      -1.829e-01          -0.189          -0.141          -0.972       1.361e+00          0.5556
 440       3.354e+00      -5.855e+00      -5.168e-02          -0.379          -0.234          -0.895       9.219e-01          0.7756
 441       3.115e+00      -5.854e+00       1.321e-01          -0.789          -0.427          -0.442       6.336e-01          0.0186
 442       3.115e+00      -5.854e+00       3.469e-01          -0.796          -0.399           0.455       6.189e-01         -2.8809
 443       3.354e+00      -5.853e+00       5.252e-01          -0.367          -0.163           0.916       9.020e-01         -3.4824
 444       3.820e+00      -5.853e+00       6.450e-01          -0.166          -0.059           0.984       1.344e+00         -1.9514
 445       4.484e+00      -5.853e+00       7.258e-01          -0.086          -0.019           0.996       1.750e+00         -1.3057
 446       5.308e+00      -5.853e+00       7.727e-01          -0.032           0.006           0.999       2.063e+00         -1.0084
 447       6.244e+00      -5.853e+00       7.821e-01           0.010           0.025           1.000       2.262e+00         -0.8259
 448       7.237e+00      -5.853e+00       7.533e-01           0.047           0.040           0.998       2.333e+00         -0.7007
 449       8.231e+00      -5.853e+00       6.854e-01           0.090           0.057           0.994       2.274e+00         -0.5971
 450       9.167e+00      -5.853e+00       5.767e-01           0.143           0.075           0.987       2.089e+00         -0.4771
 451       9.991e+00      -5.853e+00       4.348e-01           0.200           0.094           0.975       1.787e+00         -0.3316
 452       1.066e+01      -5.854e+00       2.826e-01           0.251           0.110           0.962       1.375e+00         -0.1691
 453       1.112e+01      -5.854e+00       1.531e-01           0.290           0.121           0.949       8.699e-01         -0.0526
 454       1.136e+01      -5.854e+00       6.382e-02           0.488           0.174           0.855       3.281e-01          0.2067
Strip 18
 455       1.070e+01      -3.529e+00      -6.511e-02          -0.052          -0.056          -0.997       3.045e-01          0.1008
 456       1.044e+01      -3.529e+00      -2.172e-02          -0.204          -0.099          -0.974       9.171e-01          0.3483
 457       9.948e+00      -3.529e+00       3.432e-02          -0.052          -0.055          -0.997       1.435e+00          0.4443
 458       9.240e+00      -3.529e+00       5.231e-03           0.111          -0.004          -0.994       1.897e+00          0.4091
 459       8.361e+00      -3.529e+00      -1.366e-01           0.199           0.026          -0.980       2.277e+00          0.2923
 460       7.363e+00      -3.529e+00      -3.263e-01           0.175           0.017          -0.984       2.485e+00          0.1372
 461       6.303e+00      -3.529e+00      -4.594e-01           0.074          -0.022          -0.997       2.527e+00          0.0697
 462       5.243e+00      -3.529e+00      -4.987e-01          -0.002          -0.054          -0.999       2.450e+00          0.1193
 463       4.244e+00      -3.529e+00      -4.705e-01          -0.057          -0.079          -0.995       2.241e+00          0.2173
 464       3.366e+00      -3.529e+00      -3.985e-01          -0.109          -0.103          -0.989       1.907e+00          0.3443
 465       2.657e+00      -3.529e+00      -2.947e-01          -0.189          -0.141          -0.972       1.472e+00          0.5220
 466       2.161e+00      -3.529e+00      -1.547e-01          -0.379          -0.234          -0.896       9.972e-01          0.7679
 467       1.906e+00      -3.529e+00       4.127e-02          -0.789          -0.427          -0.442       6.853e-01          0.2065
 468       1.906e+00      -3.528e+00       2.704e-01          -0.796          -0.399           0.454       6.691e-01         -2.4471
 469       2.161e+00      -3.528e+00       4.606e-01          -0.367          -0.163           0.916       9.753e-01         -3.1200
 470       2.657e+00      -3.528e+00       5.884e-01          -0.166          -0.059           0.984       1.453e+00         -1.7791
 471       3.366e+00      -3.528e+00       6.746e-01          -0.086          -0.019           0.996       1.892e+00         -1.2099
 472       4.244e+00      -3.528e+00       7.246e-01          -0.032           0.006           0.999       2.231e+00         -0.9514
 473       5.243e+00      -3.528e+00       7.346e-01           0.010           0.025           1.000       2.446e+00         -0.7934
 474       6.303e+00      -3.528e+00       7.040e-01           0.047           0.040           0.998       2.523e+00         -0.6846
 475       7.363e+00      -3.528e+00       6.315e-01           0.090           0.057           0.994       2.459e+00         -0.5914
 476       8.361e+00      -3.528e+00       5.156e-01           0.143           0.075           0.987       2.259e+00         -0.4772
 477       9.240e+00      -3.528e+00       3.641e-01           0.200           0.094           0.975       1.933e+00         -0.3341
 478       9.948e+00      -3.528e+00       2.018e-01           0.251           0.110           0.962       1.488e+00         -0.1724
 479       1.044e+01      -3.529e+00       6.376e-02           0.290           0.121           0.949       9.408e-01         -0.0567
 480       1.070e+01      -3.529e+00      -3.150e-02           0.488           0.174           0.855       3.549e-01          0.2012
Strip 19
 481       1.003e+01      -1.179e+00      -1.635e-01          -0.052          -0.056          -0.997       3.260e-01          0.0983
 482       9.761e+00      -1.179e+00      -1.174e-01          -0.204          -0.099          -0.974       9.817e-01          0.3481
 483       9.234e+00      -1.179e+00      -5.784e-02          -0.052          -0.055          -0.997       1.536e+00          0.4439
 484       8.481e+00      -1.179e+00      -8.876e-02           0.111          -0.004          -0.994       2.031e+00          0.4032
 485       7.547e+00      -1.179e+00      -2.395e-01           0.199           0.026          -0.980       2.437e+00          0.2779
 486       6.485e+00      -1.179e+00      -4.412e-01           0.175           0.017          -0.984       2.660e+00          0.1184
 487       5.359e+00      -1.179e+00      -5.828e-01           0.074          -0.022          -0.997       2.705e+00          0.0557
 488       4.232e+00      -1.179e+00      -6.245e-01          -0.002          -0.054          -0.999       2.622e+00          0.1130
 489       3.170e+00      -1.179e+00      -5.945e-01          -0.057          -0.079          -0.995       2.399e+00          0.2130
 490       2.236e+00      -1.179e+00      -5.180e-01          -0.109          -0.103          -0.989       2.042e+00          0.3355
 491       1.483e+00      -1.179e+00      -4.076e-01          -0.189          -0.141          -0.972       1.576e+00          0.5020
 492       9.557e-01      -1.179e+00      -2.588e-01          -0.379          -0.234          -0.896       1.068e+00          0.7566
 493       6.841e-01      -1.179e+00      -5.045e-02          -0.788          -0.427          -0.443       7.337e-01          0.4441
 494       6.841e-01      -1.179e+00       1.932e-01          -0.797          -0.399           0.454       7.161e-01         -1.7778
 495       9.557e-01      -1.179e+00       3.953e-01          -0.367          -0.163           0.916       1.044e+00         -2.4939
 496       1.483e+00      -1.179e+00       5.312e-01          -0.166          -0.059           0.984       1.556e+00         -1.4687
 497       2.236e+00      -1.179e+00       6.228e-01          -0.086          -0.019           0.996       2.025e+00         -1.0560
 498       3.170e+00      -1.179e+00       6.760e-01          -0.032           0.006           0.999       2.388e+00         -0.8798
 499       4.232e+00      -1.179e+00       6.867e-01           0.010           0.025           1.000       2.618e+00         -0.7646
 500       5.359e+00      -1.179e+00       6.541e-01           0.047           0.040           0.998       2.701e+00         -0.6842
 501       6.485e+00      -1.179e+00       5.770e-01           0.090           0.057           0.994       2.632e+00         -0.6104
 502       7.547e+00      -1.179e+00       4.538e-01           0.143           0.075           0.987       2.419e+00         -0.5058
 503       8.481e+00      -1.179e+00       2.928e-01           0.200           0.094           0.975       2.069e+00         -0.3621
 504       9.234e+00      -1.179e+00       1.202e-01           0.251           0.110           0.962       1.592e+00         -0.1938
 505       9.761e+00      -1.179e+00      -2.654e-02           0.290           0.121           0.949       1.007e+00         -0.0707
 506       1.003e+01      -1.179e+00      -1.278e-01           0.488           0.174           0.855       3.799e-01          0.1907
Strip 20
 507       1.003e+01       1.179e+00      -1.635e-01          -0.052           0.056          -0.997       3.260e-01          0.0983
 508       9.761e+00       1.179e+00      -1.174e-01          -0.204           0.099          -0.974       9.817e-01          0.3481
 509       9.234e+00       1.179e+00      -5.784e-02          -0.052           0.055          -0.997       1.536e+00          0.4439
 510       8.481e+00       1.179e+00      -8.876e-02           0.111           0.004          -0.994       2.031e+00          0.4032
 511       7.547e+00       1.179e+00      -2.395e-01           0.199          -0.026          -0.980       2.437e+00          0.2779
 512       6.485e+00       1.179e+00      -4.412e-01           0.175          -0.017          -0.984       2.660e+00          0.1184
 513       5.359e+00       1.179e+00      -5.828e-01           0.074           0.022          -0.997       2.705e+00          0.0557
 514       4.232e+00       1.179e+00      -6.245e-01          -0.002           0.054          -0.999       2.622e+00          0.1130
 515       3.170e+00       1.179e+00      -5.945e-01          -0.057           0.079          -0.995       2.399e+00          0.2130
 516       2.236e+00       1.179e+00      -5.180e-01          -0.109           0.103          -0.989       2.042e+00          0.3355
 517       1.483e+00       1.179e+00      -4.076e-01          -0.189           0.141          -0.972       1.576e+00          0.5020
 518       9.557e-01       1.179e+00      -2.588e-01          -0.379           0.234          -0.896       1.068e+00          0.7566
 519       6.841e-01       1.179e+00      -5.045e-02          -0.788           0.427          -0.443       7.337e-01          0.4441
 520       6.841e-01       1.179e+00       1.932e-01          -0.797           0.399           0.454       7.161e-01         -1.7778
 521       9.557e-01       1.179e+00       3.953e-01          -0.367           0.163           0.916       1.044e+00         -2.4939
 522       1.483e+00       1.179e+00       5.312e-01          -0.166           0.059           0.984       1.556e+00         -1.4687
 523       2.236e+00       1.179e+00       6.228e-01          -0.086           0.019           0.996       2.025e+00         -1.0560
 524       3.170e+00       1.179e+00       6.760e-01          -0.032          -0.006           0.999       2.388e+00         -0.8798
 525       4.232e+00       1.179e+00       6.867e-01           0.010          -0.025           1.000       2.618e+00         -0.7646
 526       5.359e+00       1.179e+00       6.541e-01           0.047          -0.040           0.998       2.701e+00         -0.6842
 527       6.485e+00       1.179e+00       5.770e-01           0.090          -0.057           0.994       2.632e+00         -0.6104
 528       7.547e+00       1.179e+00       4.538e-01           0.143          -0.075           0.987       2.419e+00         -0.5058
 529       8.481e+00       1.179e+00       2.928e-01           0.200          -0.094           0.975       2.069e+00         -0.3621
 530       9.234e+00       1.179e+00       1.202e-01           0.251          -0.110           0.962       1.592e+00         -0.1938
 531       9.761e+00       1.179e+00      -2.654e-02           0.290          -0.121           0.949       1.007e+00         -0.0707
 532       1.003e+01       1.179e+00      -1.278e-01           0.488          -0.174           0.855       3.799e-01          0.1908
Strip 21
 533       1.070e+01       3.529e+00      -6.511e-02          -0.052           0.056          -0.997       3.045e-01          0.1008
 534       1.044e+01       3.529e+00      -2.172e-02          -0.204           0.099          -0.974       9.171e-01          0.3483
 535       9.948e+00       3.529e+00       3.432e-02          -0.052           0.055          -0.997       1.435e+00          0.4443
 536       9.240e+00       3.529e+00       5.231e-03           0.111           0.004          -0.994       1.897e+00          0.4091
 537       8.361e+00       3.529e+00      -1.366e-01           0.199          -0.026          -0.980       2.277e+00          0.2923
 538       7.363e+00       3.529e+00      -3.263e-01           0.175          -0.017          -0.984       2.485e+00          0.1372
 539       6.303e+00       3.529e+00      -4.594e-01           0.074           0.022          -0.997       2.527e+00          0.0697
 540       5.243e+00       3.529e+00      -4.987e-01          -0.002           0.054          -0.999       2.450e+00          0.1193
 541       4.244e+00       3.529e+00      -4.705e-01          -0.057           0.079          -0.995       2.241e+00          0.2173
 542       3.366e+00       3.529e+00      -3.985e-01          -0.109           0.103          -0.989       1.907e+00          0.3443
 543       2.657e+00       3.529e+00      -2.947e-01          -0.189           0.141          -0.972       1.472e+00          0.5220
 544       2.161e+00       3.529e+00      -1.547e-01          -0.379           0.234          -0.896       9.972e-01          0.7679
 545       1.906e+00       3.529e+00       4.127e-02          -0.789           0.427          -0.442       6.853e-01          0.2065
 546       1.906e+00       3.528e+00       2.704e-01          -0.796           0.399           0.454       6.691e-01         -2.4471
 547       2.161e+00       3.528e+00       4.606e-01          -0.367           0.163           0.916       9.753e-01         -3.1200
 548       2.657e+00       3.528e+00       5.884e-01          -0.166           0.059           0.984       1.453e+00         -1.7791
 549       3.366e+00       3.528e+00       6.746e-01          -0.086           0.019           0.996       1.892e+00         -1.2099
 550       4.244e+00       3.528e+00       7.246e-01          -0.032          -0.006           0.999       2.231e+00         -0.9514
 551       5.243e+00       3.528e+00       7.346e-01           0.010          -0.025           1.000       2.446e+00         -0.7934
 552       6.303e+00       3.528e+00       7.040e-01           0.047          -0.040           0.998       2.523e+00         -0.6846
 553       7.363e+00       3.528e+00       6.315e-01           0.090          -0.057           0.994       2.459e+00         -0.5914
 554       8.361e+00       3.528e+00       5.156e-01           0.143          -0.075           0.987       2.259e+00         -0.4772
 555       9.240e+00       3.528e+00       3.641e-01           0.200          -0.094           0.975       1.933e+00         -0.3341
 556       9.948e+00       3.528e+00       2.018e-01           0.251          -0.110           0.962       1.488e+00         -0.1724
 557       1.044e+01       3.529e+00       6.376e-02           0.290          -0.121           0.949       9.408e-01         -0.0567
 558       1.070e+01       3.529e+00      -3.150e-02           0.488          -0.174           0.855       3.549e-01          0.2012
Strip 22
 559       1.136e+01       5.855e+00       3.231e-02          -0.052           0.056          -0.997       2.816e-01          0.1038
 560       1.112e+01       5.854e+00       7.299e-02          -0.204           0.099          -0.974       8.480e-01          0.3491
 561       1.066e+01       5.854e+00       1.255e-01          -0.052           0.055          -0.997       1.327e+00          0.4446
 562       9.991e+00       5.854e+00       9.826e-02           0.111           0.004          -0.994       1.755e+00          0.4106
 563       9.167e+00       5.855e+00      -3.469e-02           0.199          -0.026          -0.980       2.106e+00          0.2973
 564       8.231e+00       5.855e+00      -2.126e-01           0.175          -0.017          -0.984       2.298e+00          0.1478
 565       7.237e+00       5.856e+00      -3.374e-01           0.074           0.022          -0.997       2.337e+00          0.0850
 566       6.244e+00       5.856e+00      -3.742e-01          -0.002           0.054          -0.999       2.265e+00          0.1375
 567       5.307e+00       5.856e+00      -3.477e-01          -0.057           0.079          -0.995       2.073e+00          0.2390
[...]
 852       1.475e+01       2.563e+01       6.845e-01          -0.002           0.054          -0.999       4.410e-01          0.1905
 853       1.435e+01       2.563e+01       6.960e-01          -0.057           0.079          -0.995       4.033e-01          0.3149
 854       1.399e+01       2.563e+01       7.252e-01          -0.110           0.103          -0.989       3.429e-01          0.4716
 855       1.370e+01       2.563e+01       7.674e-01          -0.189           0.141          -0.972       2.645e-01          0.6625
 856       1.350e+01       2.563e+01       8.243e-01          -0.380           0.235          -0.895       1.787e-01          0.7029
 857       1.340e+01       2.563e+01       9.039e-01          -0.792           0.429          -0.434       1.228e-01         -0.9240
 858       1.340e+01       2.563e+01       9.971e-01          -0.793           0.397           0.463       1.210e-01         -4.6691
 859       1.350e+01       2.562e+01       1.074e+00          -0.365           0.162           0.917       1.763e-01         -4.8312
 860       1.370e+01       2.562e+01       1.126e+00          -0.165           0.059           0.984       2.622e-01         -2.5623
 861       1.399e+01       2.562e+01       1.161e+00          -0.086           0.019           0.996       3.410e-01         -1.6412
 862       1.435e+01       2.562e+01       1.182e+00          -0.032          -0.006           0.999       4.018e-01         -1.2139
 863       1.475e+01       2.562e+01       1.186e+00           0.010          -0.025           1.000       4.403e-01         -0.9539
 864       1.518e+01       2.562e+01       1.173e+00           0.047          -0.040           0.998       4.540e-01         -0.7796
 865       1.562e+01       2.562e+01       1.144e+00           0.090          -0.057           0.994       4.423e-01         -0.6455
 866       1.602e+01       2.562e+01       1.097e+00           0.143          -0.075           0.987       4.063e-01         -0.5080
 867       1.638e+01       2.563e+01       1.035e+00           0.200          -0.094           0.975       3.474e-01         -0.3522
 868       1.667e+01       2.563e+01       9.692e-01           0.252          -0.110           0.962       2.673e-01         -0.1810
 869       1.687e+01       2.563e+01       9.130e-01           0.291          -0.121           0.949       1.690e-01         -0.0582
 870       1.697e+01       2.563e+01       8.743e-01           0.490          -0.174           0.854       6.370e-02          0.2163
Strip 34
 871       1.724e+01       2.658e+01       9.004e-01          -0.052           0.056          -0.997       4.252e-02          0.0748
 872       1.714e+01       2.658e+01       9.169e-01          -0.205           0.099          -0.974       1.279e-01          0.2990
 873       1.696e+01       2.658e+01       9.382e-01          -0.052           0.055          -0.997       2.004e-01          0.3826
 874       1.668e+01       2.658e+01       9.272e-01           0.111           0.004          -0.994       2.653e-01          0.3462
 875       1.635e+01       2.658e+01       8.731e-01           0.199          -0.026          -0.980       3.187e-01          0.2416
 876       1.597e+01       2.658e+01       8.009e-01           0.175          -0.017          -0.984       3.478e-01          0.1133
 877       1.556e+01       2.658e+01       7.501e-01           0.074           0.022          -0.997       3.533e-01          0.0746
 878       1.516e+01       2.658e+01       7.352e-01          -0.002           0.054          -0.999       3.422e-01          0.1493
 879       1.478e+01       2.658e+01       7.459e-01          -0.057           0.079          -0.995       3.129e-01          0.2762
 880       1.444e+01       2.658e+01       7.733e-01          -0.110           0.103          -0.989       2.660e-01          0.4376
 881       1.417e+01       2.658e+01       8.129e-01          -0.189           0.141          -0.972       2.052e-01          0.6369
 882       1.399e+01       2.658e+01       8.662e-01          -0.381           0.235          -0.894       1.386e-01          0.7091
 883       1.389e+01       2.658e+01       9.409e-01          -0.793           0.429          -0.433       9.524e-02         -0.8159
 884       1.389e+01       2.657e+01       1.028e+00          -0.792           0.397           0.464       9.394e-02         -4.4506
 885       1.399e+01       2.657e+01       1.101e+00          -0.365           0.162           0.917       1.369e-01         -4.6516
 886       1.417e+01       2.657e+01       1.149e+00          -0.165           0.059           0.985       2.035e-01         -2.4651
 887       1.444e+01       2.657e+01       1.182e+00          -0.086           0.019           0.996       2.647e-01         -1.5701
 888       1.478e+01       2.657e+01       1.201e+00          -0.032          -0.006           0.999       3.118e-01         -1.1525
 889       1.516e+01       2.657e+01       1.205e+00           0.010          -0.025           1.000       3.416e-01         -0.8988
 890       1.556e+01       2.657e+01       1.193e+00           0.047          -0.040           0.998       3.523e-01         -0.7314
 891       1.597e+01       2.657e+01       1.166e+00           0.090          -0.057           0.994       3.432e-01         -0.6063
 892       1.635e+01       2.657e+01       1.122e+00           0.143          -0.075           0.987       3.152e-01         -0.4803
 893       1.668e+01       2.657e+01       1.064e+00           0.200          -0.094           0.975       2.695e-01         -0.3372
 894       1.696e+01       2.657e+01       1.002e+00           0.252          -0.110           0.962       2.074e-01         -0.1768
 895       1.714e+01       2.658e+01       9.494e-01           0.291          -0.121           0.949       1.311e-01         -0.0622
 896       1.724e+01       2.658e+01       9.132e-01           0.490          -0.174           0.854       4.941e-02          0.2122
Strip 35
 897       1.746e+01       2.734e+01       9.324e-01          -0.052           0.056          -0.997       3.158e-02          0.0348
 898       1.737e+01       2.734e+01       9.481e-01          -0.205           0.099          -0.974       9.498e-02          0.2471
 899       1.719e+01       2.734e+01       9.683e-01          -0.052           0.055          -0.997       1.488e-01          0.3234
 900       1.693e+01       2.734e+01       9.578e-01           0.111           0.004          -0.994       1.971e-01          0.2850
 901       1.662e+01       2.734e+01       9.067e-01           0.199          -0.026          -0.980       2.367e-01          0.1804
 902       1.625e+01       2.735e+01       8.383e-01           0.175          -0.017          -0.984       2.583e-01          0.0506
 903       1.587e+01       2.735e+01       7.903e-01           0.074           0.022          -0.997       2.624e-01          0.0081
 904       1.549e+01       2.735e+01       7.762e-01          -0.002           0.054          -0.999       2.542e-01          0.0796
 905       1.513e+01       2.735e+01       7.863e-01          -0.057           0.079          -0.995       2.323e-01          0.2068
 906       1.481e+01       2.735e+01       8.123e-01          -0.110           0.103          -0.989       1.976e-01          0.3738
 907       1.456e+01       2.735e+01       8.497e-01          -0.189           0.141          -0.972       1.523e-01          0.5864
 908       1.438e+01       2.734e+01       9.002e-01          -0.381           0.235          -0.894       1.029e-01          0.7112
 909       1.429e+01       2.734e+01       9.708e-01          -0.793           0.429          -0.432       7.070e-02         -0.6387
 910       1.429e+01       2.734e+01       1.053e+00          -0.792           0.396           0.464       6.980e-02         -4.0886
 911       1.438e+01       2.734e+01       1.122e+00          -0.365           0.162           0.917       1.017e-01         -4.3530
 912       1.456e+01       2.734e+01       1.168e+00          -0.165           0.059           0.985       1.512e-01         -2.3007
 913       1.481e+01       2.733e+01       1.199e+00          -0.086           0.019           0.996       1.966e-01         -1.4495
 914       1.513e+01       2.733e+01       1.217e+00          -0.032          -0.006           0.999       2.316e-01         -1.0505
 915       1.549e+01       2.733e+01       1.221e+00           0.010          -0.025           1.000       2.537e-01         -0.8118
 916       1.587e+01       2.733e+01       1.210e+00           0.047          -0.040           0.998       2.616e-01         -0.6613
 917       1.625e+01       2.733e+01       1.183e+00           0.090          -0.057           0.994       2.548e-01         -0.5554
 918       1.662e+01       2.734e+01       1.142e+00           0.143          -0.075           0.987       2.340e-01         -0.4507
 919       1.693e+01       2.734e+01       1.087e+00           0.200          -0.094           0.975       2.001e-01         -0.3296
 920       1.719e+01       2.734e+01       1.029e+00           0.252          -0.110           0.962       1.540e-01         -0.1875
 921       1.737e+01       2.734e+01       9.789e-01           0.291          -0.121           0.949       9.736e-02         -0.0862
 922       1.746e+01       2.734e+01       9.445e-01           0.490          -0.174           0.854       3.668e-02          0.1897
Strip 36
 923       1.762e+01       2.792e+01       9.567e-01          -0.052           0.056          -0.997       2.173e-02         -0.0852
 924       1.754e+01       2.792e+01       9.716e-01          -0.205           0.099          -0.974       6.536e-02          0.1025
 925       1.736e+01       2.792e+01       9.910e-01          -0.052           0.055          -0.997       1.024e-01          0.1699
 926       1.712e+01       2.792e+01       9.809e-01           0.111           0.004          -0.994       1.356e-01          0.1422
 927       1.682e+01       2.792e+01       9.320e-01           0.199          -0.026          -0.980       1.629e-01          0.0578
 928       1.647e+01       2.792e+01       8.666e-01           0.175          -0.017          -0.984       1.778e-01         -0.0536
 929       1.611e+01       2.793e+01       8.207e-01           0.074           0.022          -0.997       1.806e-01         -0.0900
 930       1.574e+01       2.793e+01       8.072e-01          -0.002           0.054          -0.999       1.749e-01         -0.0252
 931       1.539e+01       2.793e+01       8.169e-01          -0.057           0.079          -0.995       1.599e-01          0.0903
 932       1.509e+01       2.793e+01       8.417e-01          -0.110           0.103          -0.989       1.359e-01          0.2525
 933       1.485e+01       2.792e+01       8.775e-01          -0.189           0.141          -0.972       1.048e-01          0.4794
 934       1.468e+01       2.792e+01       9.258e-01          -0.381           0.235          -0.894       7.080e-02          0.6801
 935       1.459e+01       2.792e+01       9.934e-01          -0.793           0.429          -0.432       4.864e-02         -0.4058
 936       1.459e+01       2.792e+01       1.072e+00          -0.792           0.396           0.465       4.806e-02         -3.5686
 937       1.468e+01       2.792e+01       1.138e+00          -0.365           0.162           0.917       7.002e-02         -3.9113
 938       1.485e+01       2.791e+01       1.182e+00          -0.165           0.059           0.985       1.040e-01         -2.0494
 939       1.509e+01       2.791e+01       1.212e+00          -0.086           0.019           0.996       1.353e-01         -1.2668
 940       1.539e+01       2.791e+01       1.229e+00          -0.032          -0.006           0.999       1.594e-01         -0.9067
 941       1.574e+01       2.791e+01       1.232e+00           0.010          -0.025           1.000       1.746e-01         -0.7062
 942       1.611e+01       2.791e+01       1.222e+00           0.047          -0.040           0.998       1.800e-01         -0.5946
 943       1.647e+01       2.791e+01       1.197e+00           0.090          -0.057           0.994       1.754e-01         -0.5272
 944       1.682e+01       2.791e+01       1.157e+00           0.143          -0.075           0.987       1.611e-01         -0.4615
 945       1.712e+01       2.792e+01       1.105e+00           0.200          -0.094           0.975       1.377e-01         -0.3804
 946       1.736e+01       2.792e+01       1.049e+00           0.252          -0.110           0.962       1.060e-01         -0.2747
 947       1.754e+01       2.792e+01       1.001e+00           0.291          -0.121           0.949       6.700e-02         -0.1985
 948       1.762e+01       2.792e+01       9.683e-01           0.490          -0.174           0.854       2.524e-02          0.0832
Strip 37
 949       1.773e+01       2.831e+01       9.729e-01          -0.052           0.056          -0.997       1.270e-02         -0.6688
 950       1.765e+01       2.831e+01       9.874e-01          -0.205           0.099          -0.974       3.820e-02         -0.5539
 951       1.748e+01       2.831e+01       1.006e+00          -0.052           0.055          -0.997       5.986e-02         -0.4384
 952       1.724e+01       2.831e+01       9.965e-01           0.111           0.004          -0.994       7.929e-02         -0.3010
 953       1.695e+01       2.831e+01       9.490e-01           0.198          -0.026          -0.980       9.526e-02         -0.2121
 954       1.662e+01       2.831e+01       8.856e-01           0.175          -0.017          -0.984       1.040e-01         -0.2170
 955       1.626e+01       2.831e+01       8.411e-01           0.074           0.022          -0.997       1.056e-01         -0.2121
 956       1.591e+01       2.831e+01       8.279e-01          -0.002           0.054          -0.999       1.022e-01         -0.1495
 957       1.557e+01       2.831e+01       8.374e-01          -0.057           0.079          -0.995       9.347e-02         -0.0634
 958       1.528e+01       2.831e+01       8.614e-01          -0.110           0.103          -0.989       7.946e-02          0.0571
 959       1.504e+01       2.831e+01       8.962e-01          -0.189           0.141          -0.972       6.126e-02          0.2556
 960       1.487e+01       2.831e+01       9.430e-01          -0.381           0.235          -0.894       4.137e-02          0.5158
 961       1.479e+01       2.831e+01       1.009e+00          -0.794           0.429          -0.431       2.842e-02         -0.2159
 962       1.479e+01       2.831e+01       1.085e+00          -0.791           0.396           0.466       2.810e-02         -2.8893
 963       1.487e+01       2.830e+01       1.149e+00          -0.365           0.162           0.917       4.094e-02         -3.2853
 964       1.504e+01       2.830e+01       1.192e+00          -0.165           0.059           0.985       6.083e-02         -1.6839
 965       1.528e+01       2.830e+01       1.220e+00          -0.086           0.019           0.996       7.909e-02         -1.0308
 966       1.557e+01       2.830e+01       1.237e+00          -0.032          -0.006           0.999       9.316e-02         -0.7641
 967       1.591e+01       2.830e+01       1.240e+00           0.010          -0.025           1.000       1.021e-01         -0.6349
 968       1.626e+01       2.830e+01       1.230e+00           0.047          -0.040           0.998       1.052e-01         -0.5798
 969       1.662e+01       2.830e+01       1.206e+00           0.090          -0.057           0.994       1.025e-01         -0.5815
 970       1.695e+01       2.830e+01       1.167e+00           0.143          -0.075           0.987       9.414e-02         -0.6321
 971       1.724e+01       2.830e+01       1.116e+00           0.200          -0.094           0.975       8.050e-02         -0.7272
 972       1.748e+01       2.831e+01       1.062e+00           0.252          -0.110           0.962       6.193e-02         -0.8119
 973       1.765e+01       2.831e+01       1.016e+00           0.291          -0.121           0.949       3.916e-02         -0.8541
 974       1.773e+01       2.831e+01       9.842e-01           0.490          -0.174           0.854       1.475e-02         -0.5785
Strip 38
 975       1.779e+01       2.850e+01       9.811e-01          -0.052           0.056          -0.997       4.178e-03         -1.3984
 976       1.770e+01       2.850e+01       9.954e-01          -0.205           0.099          -0.974       1.256e-02         -1.4014
 977       1.754e+01       2.850e+01       1.014e+00          -0.052           0.055          -0.997       1.969e-02         -1.2471
 978       1.731e+01       2.850e+01       1.004e+00           0.111           0.004          -0.994       2.608e-02         -0.8952
 979       1.702e+01       2.851e+01       9.576e-01           0.198          -0.026          -0.980       3.133e-02         -0.5571
 980       1.669e+01       2.851e+01       8.951e-01           0.175          -0.017          -0.984       3.419e-02         -0.3813
 981       1.634e+01       2.851e+01       8.513e-01           0.074           0.022          -0.997       3.473e-02         -0.2952
 982       1.599e+01       2.851e+01       8.384e-01          -0.002           0.054          -0.999       3.363e-02         -0.2237
 983       1.566e+01       2.851e+01       8.477e-01          -0.057           0.079          -0.995       3.074e-02         -0.1583
 984       1.537e+01       2.851e+01       8.713e-01          -0.110           0.103          -0.989       2.613e-02         -0.0738
 985       1.514e+01       2.851e+01       9.055e-01          -0.190           0.141          -0.972       2.015e-02          0.0811
 986       1.497e+01       2.851e+01       9.516e-01          -0.381           0.235          -0.894       1.360e-02          0.3404
 987       1.489e+01       2.850e+01       1.016e+00          -0.794           0.429          -0.431       9.346e-03         -0.0258
 988       1.489e+01       2.850e+01       1.092e+00          -0.791           0.396           0.466       9.243e-03         -2.0820
 989       1.497e+01       2.850e+01       1.154e+00          -0.364           0.162           0.917       1.347e-02         -2.5478
 990       1.514e+01       2.850e+01       1.196e+00          -0.165           0.059           0.985       2.001e-02         -1.3113
 991       1.537e+01       2.850e+01       1.225e+00          -0.086           0.019           0.996       2.601e-02         -0.8452
 992       1.566e+01       2.849e+01       1.241e+00          -0.032          -0.006           0.999       3.064e-02         -0.6777
 993       1.599e+01       2.849e+01       1.244e+00           0.010          -0.025           1.000       3.357e-02         -0.5961
 994       1.634e+01       2.850e+01       1.234e+00           0.047          -0.040           0.998       3.461e-02         -0.5632
 995       1.669e+01       2.850e+01       1.210e+00           0.090          -0.057           0.994       3.371e-02         -0.5863
 996       1.702e+01       2.850e+01       1.172e+00           0.143          -0.075           0.987       3.096e-02         -0.7069
 997       1.731e+01       2.850e+01       1.122e+00           0.200          -0.094           0.975       2.647e-02         -0.9845
 998       1.754e+01       2.850e+01       1.069e+00           0.252          -0.110           0.962       2.037e-02         -1.3589
 999       1.770e+01       2.850e+01       1.024e+00           0.291          -0.121           0.949       1.288e-02         -1.6022
1000       1.779e+01       2.850e+01       9.921e-01           0.490          -0.174           0.854       4.851e-03         -1.3941










